MODEL 1
REMARK VINA RESULT:    -0.001      0.000      0.000
REMARK INTER + INTRA:          -1.335
REMARK INTER:                   0.000
REMARK INTRA:                  -1.335
REMARK UNBOUND:                -1.334
REMARK Flexibility Score: inf
REMARK Active torsions [ 7 ] -> [ 7 ]
ROOT
ATOM      1  C1  LIG L   1      25.463  54.869   8.023  1.00  0.00     0.038 A 
ATOM      2  C2  LIG L   1      26.914  54.684   7.893  1.00  0.00    -0.029 A 
ATOM      3  C3  LIG L   1      27.702  54.650   9.092  1.00  0.00     0.007 A 
ATOM      4  C4  LIG L   1      27.080  54.790  10.385  1.00  0.00     0.024 A 
ATOM      5  C5  LIG L   1      25.672  54.966  10.514  1.00  0.00     0.035 A 
ATOM      6  C6  LIG L   1      24.868  55.004   9.303  1.00  0.00     0.047 A 
ATOM      7  C7  LIG L   1      27.633  54.522   6.534  1.00  0.00     0.045 C 
ENDROOT
BRANCH    1    8
ATOM      8  N1  LIG L   1      24.643  54.913   6.893  1.00  0.00    -0.283 N 
ATOM      9  H1  LIG L   1      24.557  54.115   6.322  1.00  0.00     0.155 HD
BRANCH    8   10
ATOM     10  C8  LIG L   1      23.950  56.068   6.565  1.00  0.00     0.220 A 
ATOM     11  C9  LIG L   1      24.044  58.402   6.099  1.00  0.00     0.077 A 
ATOM     12 C10  LIG L   1      22.621  58.448   5.921  1.00  0.00     0.048 A 
ATOM     13  N2  LIG L   1      24.654  57.209   6.413  1.00  0.00    -0.214 NA
ATOM     14 C11  LIG L   1      21.907  57.239   6.084  1.00  0.00     0.116 A 
ATOM     15  N3  LIG L   1      22.577  56.078   6.402  1.00  0.00    -0.223 NA
BRANCH   11   16
ATOM     16 C12  LIG L   1      24.935  59.597   5.963  1.00  0.00     0.019 A 
ATOM     17 C13  LIG L   1      25.348  62.085   5.914  1.00  0.00     0.020 A 
ATOM     18 C14  LIG L   1      24.445  60.966   6.052  1.00  0.00     0.013 A 
ATOM     19 C15  LIG L   1      26.742  61.812   5.684  1.00  0.00     0.111 A 
ATOM     20  N4  LIG L   1      27.204  60.489   5.601  1.00  0.00    -0.263 NA
ATOM     21 C16  LIG L   1      26.358  59.392   5.732  1.00  0.00     0.120 A 
ENDBRANCH   11   16
ENDBRANCH    8   10
ENDBRANCH    1    8
BRANCH    5   22
ATOM     22  N5  LIG L   1      25.122  55.090  11.842  1.00  0.00    -0.281 N 
ATOM     23 C17  LIG L   1      24.673  56.239  12.473  1.00  0.00     0.248 C 
ATOM     24  H2  LIG L   1      25.059  54.257  12.363  1.00  0.00     0.155 HD
ATOM     25  O1  LIG L   1      24.875  57.374  12.068  1.00  0.00    -0.270 OA
BRANCH   23   26
ATOM     26 C18  LIG L   1      23.901  56.107  13.746  1.00  0.00     0.037 A 
ATOM     27 C19  LIG L   1      23.545  57.284  14.544  1.00  0.00     0.013 A 
ATOM     28 C20  LIG L   1      23.511  54.788  14.197  1.00  0.00     0.013 A 
ATOM     29 C21  LIG L   1      22.814  57.128  15.776  1.00  0.00     0.002 A 
ATOM     30 C22  LIG L   1      22.794  54.639  15.405  1.00  0.00     0.002 A 
ATOM     31 C23  LIG L   1      22.433  55.788  16.218  1.00  0.00    -0.064 A 
BRANCH   31   32
ATOM     32 C24  LIG L   1      21.671  55.526  17.531  1.00  0.00    -0.043 C 
BRANCH   32   33
ATOM     33  N6  LIG L   1      22.316  54.620  18.527  1.00  0.00     0.380 N 
ATOM     34 C25  LIG L   1      23.583  55.240  19.064  1.00  0.00    -0.097 C 
ATOM     35 C26  LIG L   1      21.372  54.269  19.680  1.00  0.00    -0.097 C 
ATOM     36  H3  LIG L   1      22.547  53.754  18.040  1.00  0.00    -0.082 HD
ATOM     37 C27  LIG L   1      24.282  54.303  20.089  1.00  0.00    -0.098 C 
ATOM     38 C28  LIG L   1      22.056  53.303  20.702  1.00  0.00    -0.098 C 
ATOM     39  N7  LIG L   1      23.339  53.948  21.229  1.00  0.00     0.375 N 
ATOM     40 C29  LIG L   1      23.954  53.067  22.233  1.00  0.00    -0.096 C 
ATOM     41  H4  LIG L   1      23.116  54.830  21.690  1.00  0.00    -0.082 HD
ENDBRANCH   32   33
ENDBRANCH   31   32
ENDBRANCH   23   26
ENDBRANCH    5   22
TORSDOF 7
ENDMDL
MODEL 2
REMARK VINA RESULT:    -0.001     12.557     18.524
REMARK INTER + INTRA:          -1.335
REMARK INTER:                   0.000
REMARK INTRA:                  -1.335
REMARK UNBOUND:                -1.334
REMARK Flexibility Score: inf
REMARK Active torsions [ 7 ] -> [ 7 ]
ROOT
ATOM      1  C1  LIG L   1       8.256  51.217  21.430  1.00  0.00     0.038 A 
ATOM      2  C2  LIG L   1       8.836  49.994  21.997  1.00  0.00    -0.029 A 
ATOM      3  C3  LIG L   1      10.265  49.875  22.034  1.00  0.00     0.007 A 
ATOM      4  C4  LIG L   1      11.104  50.933  21.529  1.00  0.00     0.024 A 
ATOM      5  C5  LIG L   1      10.544  52.124  20.981  1.00  0.00     0.035 A 
ATOM      6  C6  LIG L   1       9.096  52.249  20.938  1.00  0.00     0.047 A 
ATOM      7  C7  LIG L   1       7.985  48.831  22.559  1.00  0.00     0.045 C 
ENDROOT
BRANCH    1    8
ATOM      8  N1  LIG L   1       6.871  51.390  21.364  1.00  0.00    -0.283 N 
ATOM      9  H1  LIG L   1       6.349  51.455  22.197  1.00  0.00     0.155 HD
BRANCH    8   10
ATOM     10  C8  LIG L   1       6.224  51.469  20.141  1.00  0.00     0.220 A 
ATOM     11  C9  LIG L   1       5.795  50.459  18.027  1.00  0.00     0.077 A 
ATOM     12 C10  LIG L   1       4.965  51.564  17.640  1.00  0.00     0.048 A 
ATOM     13  N2  LIG L   1       6.392  50.455  19.267  1.00  0.00    -0.214 NA
ATOM     14 C11  LIG L   1       4.805  52.612  18.574  1.00  0.00     0.116 A 
ATOM     15  N3  LIG L   1       5.432  52.550  19.799  1.00  0.00    -0.223 NA
BRANCH   11   16
ATOM     16 C12  LIG L   1       6.065  49.277  17.148  1.00  0.00     0.019 A 
ATOM     17 C13  LIG L   1       6.149  48.135  14.901  1.00  0.00     0.020 A 
ATOM     18 C14  LIG L   1       5.874  49.304  15.703  1.00  0.00     0.013 A 
ATOM     19 C15  LIG L   1       6.614  46.945  15.565  1.00  0.00     0.111 A 
ATOM     20  N4  LIG L   1       6.795  46.932  16.956  1.00  0.00    -0.263 NA
ATOM     21 C16  LIG L   1       6.540  48.042  17.754  1.00  0.00     0.120 A 
ENDBRANCH   11   16
ENDBRANCH    8   10
ENDBRANCH    1    8
BRANCH    5   22
ATOM     22  N5  LIG L   1      11.448  53.141  20.503  1.00  0.00    -0.281 N 
ATOM     23 C17  LIG L   1      11.723  53.488  19.191  1.00  0.00     0.248 C 
ATOM     24  H2  LIG L   1      11.928  53.651  21.195  1.00  0.00     0.155 HD
ATOM     25  O1  LIG L   1      11.391  52.828  18.217  1.00  0.00    -0.270 OA
BRANCH   23   26
ATOM     26 C18  LIG L   1      12.489  54.743  18.921  1.00  0.00     0.037 A 
ATOM     27 C19  LIG L   1      12.606  55.286  17.565  1.00  0.00     0.013 A 
ATOM     28 C20  LIG L   1      13.135  55.421  20.025  1.00  0.00     0.013 A 
ATOM     29 C21  LIG L   1      13.365  56.488  17.331  1.00  0.00     0.002 A 
ATOM     30 C22  LIG L   1      13.878  56.600  19.791  1.00  0.00     0.002 A 
ATOM     31 C23  LIG L   1      14.014  57.157  18.456  1.00  0.00    -0.064 A 
BRANCH   31   32
ATOM     32 C24  LIG L   1      14.861  58.433  18.295  1.00  0.00    -0.043 C 
BRANCH   32   33
ATOM     33  N6  LIG L   1      16.292  58.361  18.718  1.00  0.00     0.380 N 
ATOM     34 C25  LIG L   1      17.051  57.382  17.858  1.00  0.00    -0.097 C 
ATOM     35 C26  LIG L   1      16.972  59.733  18.680  1.00  0.00    -0.097 C 
ATOM     36  H3  LIG L   1      16.303  58.037  19.686  1.00  0.00    -0.082 HD
ATOM     37 C27  LIG L   1      18.539  57.277  18.296  1.00  0.00    -0.098 C 
ATOM     38 C28  LIG L   1      18.461  59.643  19.147  1.00  0.00    -0.098 C 
ATOM     39  N7  LIG L   1      19.210  58.643  18.266  1.00  0.00     0.375 N 
ATOM     40 C29  LIG L   1      20.624  58.599  18.665  1.00  0.00    -0.096 C 
ATOM     41  H4  LIG L   1      19.175  58.948  17.293  1.00  0.00    -0.082 HD
ENDBRANCH   32   33
ENDBRANCH   31   32
ENDBRANCH   23   26
ENDBRANCH    5   22
TORSDOF 7
ENDMDL
MODEL 3
REMARK VINA RESULT:    -0.000     18.458     23.589
REMARK INTER + INTRA:          -1.334
REMARK INTER:                   0.000
REMARK INTRA:                  -1.334
REMARK UNBOUND:                -1.334
REMARK Flexibility Score: inf
REMARK Active torsions [ 7 ] -> [ 7 ]
ROOT
ATOM      1  C1  LIG L   1      12.293  59.446  24.786  1.00  0.00     0.038 A 
ATOM      2  C2  LIG L   1      11.973  58.407  23.799  1.00  0.00    -0.029 A 
ATOM      3  C3  LIG L   1      11.005  58.712  22.784  1.00  0.00     0.007 A 
ATOM      4  C4  LIG L   1      10.370  60.005  22.739  1.00  0.00     0.024 A 
ATOM      5  C5  LIG L   1      10.681  61.017  23.693  1.00  0.00     0.035 A 
ATOM      6  C6  LIG L   1      11.660  60.713  24.726  1.00  0.00     0.047 A 
ATOM      7  C7  LIG L   1      12.628  57.006  23.796  1.00  0.00     0.045 C 
ENDROOT
BRANCH    1    8
ATOM      8  N1  LIG L   1      13.225  59.208  25.799  1.00  0.00    -0.283 N 
ATOM      9  H1  LIG L   1      14.170  59.057  25.565  1.00  0.00     0.155 HD
BRANCH    8   10
ATOM     10  C8  LIG L   1      12.835  59.183  27.129  1.00  0.00     0.220 A 
ATOM     11  C9  LIG L   1      11.387  58.260  28.780  1.00  0.00     0.077 A 
ATOM     12 C10  LIG L   1      11.977  59.086  29.793  1.00  0.00     0.048 A 
ATOM     13  N2  LIG L   1      11.843  58.340  27.483  1.00  0.00    -0.214 NA
ATOM     14 C11  LIG L   1      13.015  59.959  29.396  1.00  0.00     0.116 A 
ATOM     15  N3  LIG L   1      13.424  59.995  28.081  1.00  0.00    -0.223 NA
BRANCH   11   16
ATOM     16 C12  LIG L   1      10.278  57.289  29.042  1.00  0.00     0.019 A 
ATOM     17 C13  LIG L   1       8.366  56.400  30.427  1.00  0.00     0.020 A 
ATOM     18 C14  LIG L   1       9.423  57.363  30.220  1.00  0.00     0.013 A 
ATOM     19 C15  LIG L   1       8.181  55.368  29.441  1.00  0.00     0.111 A 
ATOM     20  N4  LIG L   1       9.009  55.308  28.310  1.00  0.00    -0.263 NA
ATOM     21 C16  LIG L   1      10.034  56.222  28.084  1.00  0.00     0.120 A 
ENDBRANCH   11   16
ENDBRANCH    8   10
ENDBRANCH    1    8
BRANCH    5   22
ATOM     22  N5  LIG L   1      10.011  62.289  23.577  1.00  0.00    -0.281 N 
ATOM     23 C17  LIG L   1       8.972  62.778  24.352  1.00  0.00     0.248 C 
ATOM     24  H2  LIG L   1      10.331  62.882  22.859  1.00  0.00     0.155 HD
ATOM     25  O1  LIG L   1       8.316  62.104  25.132  1.00  0.00    -0.270 OA
BRANCH   23   26
ATOM     26 C18  LIG L   1       8.600  64.221  24.234  1.00  0.00     0.037 A 
ATOM     27 C19  LIG L   1       7.564  64.811  25.085  1.00  0.00     0.013 A 
ATOM     28 C20  LIG L   1       9.274  65.039  23.249  1.00  0.00     0.013 A 
ATOM     29 C21  LIG L   1       7.212  66.201  24.938  1.00  0.00     0.002 A 
ATOM     30 C22  LIG L   1       8.928  66.402  23.108  1.00  0.00     0.002 A 
ATOM     31 C23  LIG L   1       7.900  67.011  23.936  1.00  0.00    -0.064 A 
BRANCH   31   32
ATOM     32 C24  LIG L   1       7.574  68.497  23.696  1.00  0.00    -0.043 C 
BRANCH   32   33
ATOM     33  N6  LIG L   1       7.105  68.883  22.331  1.00  0.00     0.380 N 
ATOM     34 C25  LIG L   1       5.781  68.229  22.021  1.00  0.00    -0.097 C 
ATOM     35 C26  LIG L   1       6.993  70.401  22.170  1.00  0.00    -0.097 C 
ATOM     36  H3  LIG L   1       7.806  68.552  21.668  1.00  0.00    -0.082 HD
ATOM     37 C27  LIG L   1       5.284  68.601  20.596  1.00  0.00    -0.098 C 
ATOM     38 C28  LIG L   1       6.523  70.788  20.730  1.00  0.00    -0.098 C 
ATOM     39  N7  LIG L   1       5.182  70.111  20.436  1.00  0.00     0.375 N 
ATOM     40 C29  LIG L   1       4.709  70.519  19.105  1.00  0.00    -0.096 C 
ATOM     41  H4  LIG L   1       4.486  70.417  21.116  1.00  0.00    -0.082 HD
ENDBRANCH   32   33
ENDBRANCH   31   32
ENDBRANCH   23   26
ENDBRANCH    5   22
TORSDOF 7
ENDMDL
MODEL 4
REMARK VINA RESULT:    -0.000     11.539     16.776
REMARK INTER + INTRA:          -1.334
REMARK INTER:                   0.000
REMARK INTRA:                  -1.334
REMARK UNBOUND:                -1.334
REMARK Flexibility Score: inf
REMARK Active torsions [ 7 ] -> [ 7 ]
ROOT
ATOM      1  C1  LIG L   1      13.179  55.542  18.238  1.00  0.00     0.038 A 
ATOM      2  C2  LIG L   1      14.214  56.568  18.415  1.00  0.00    -0.029 A 
ATOM      3  C3  LIG L   1      14.529  57.413  17.299  1.00  0.00     0.007 A 
ATOM      4  C4  LIG L   1      13.843  57.256  16.041  1.00  0.00     0.024 A 
ATOM      5  C5  LIG L   1      12.835  56.263  15.866  1.00  0.00     0.035 A 
ATOM      6  C6  LIG L   1      12.513  55.402  16.993  1.00  0.00     0.047 A 
ATOM      7  C7  LIG L   1      14.977  56.785  19.743  1.00  0.00     0.045 C 
ENDROOT
BRANCH    1    8
ATOM      8  N1  LIG L   1      12.830  54.688  19.286  1.00  0.00    -0.283 N 
ATOM      9  H1  LIG L   1      12.407  55.058  20.095  1.00  0.00     0.155 HD
BRANCH    8   10
ATOM     10  C8  LIG L   1      13.072  53.325  19.201  1.00  0.00     0.220 A 
ATOM     11  C9  LIG L   1      14.657  51.587  18.827  1.00  0.00     0.077 A 
ATOM     12 C10  LIG L   1      13.639  50.590  18.995  1.00  0.00     0.048 A 
ATOM     13  N2  LIG L   1      14.332  52.920  18.939  1.00  0.00    -0.214 NA
ATOM     14 C11  LIG L   1      12.328  51.041  19.270  1.00  0.00     0.116 A 
ATOM     15  N3  LIG L   1      12.067  52.390  19.367  1.00  0.00    -0.223 NA
BRANCH   11   16
ATOM     16 C12  LIG L   1      16.089  51.268  18.529  1.00  0.00     0.019 A 
ATOM     17 C13  LIG L   1      17.915  49.729  17.714  1.00  0.00     0.020 A 
ATOM     18 C14  LIG L   1      16.519  49.986  17.984  1.00  0.00     0.013 A 
ATOM     19 C15  LIG L   1      18.867  50.770  17.998  1.00  0.00     0.111 A 
ATOM     20  N4  LIG L   1      18.442  52.001  18.520  1.00  0.00    -0.263 NA
ATOM     21 C16  LIG L   1      17.105  52.277  18.789  1.00  0.00     0.120 A 
ENDBRANCH   11   16
ENDBRANCH    8   10
ENDBRANCH    1    8
BRANCH    5   22
ATOM     22  N5  LIG L   1      12.187  56.173  14.581  1.00  0.00    -0.281 N 
ATOM     23 C17  LIG L   1      12.408  55.242  13.580  1.00  0.00     0.248 C 
ATOM     24  H2  LIG L   1      11.504  56.857  14.393  1.00  0.00     0.155 HD
ATOM     25  O1  LIG L   1      13.353  54.468  13.552  1.00  0.00    -0.270 OA
BRANCH   23   26
ATOM     26 C18  LIG L   1      11.447  55.169  12.437  1.00  0.00     0.037 A 
ATOM     27 C19  LIG L   1      11.565  54.130  11.410  1.00  0.00     0.013 A 
ATOM     28 C20  LIG L   1      10.392  56.155  12.345  1.00  0.00     0.013 A 
ATOM     29 C21  LIG L   1      10.635  54.093  10.309  1.00  0.00     0.002 A 
ATOM     30 C22  LIG L   1       9.482  56.115  11.264  1.00  0.00     0.002 A 
ATOM     31 C23  LIG L   1       9.579  55.099  10.230  1.00  0.00    -0.064 A 
BRANCH   31   32
ATOM     32 C24  LIG L   1       8.556  55.148   9.079  1.00  0.00    -0.043 C 
BRANCH   32   33
ATOM     33  N6  LIG L   1       8.516  56.392   8.253  1.00  0.00     0.380 N 
ATOM     34 C25  LIG L   1       9.817  56.577   7.510  1.00  0.00    -0.097 C 
ATOM     35 C26  LIG L   1       7.344  56.390   7.268  1.00  0.00    -0.097 C 
ATOM     36  H3  LIG L   1       8.382  57.174   8.894  1.00  0.00    -0.082 HD
ATOM     37 C27  LIG L   1       9.804  57.878   6.660  1.00  0.00    -0.098 C 
ATOM     38 C28  LIG L   1       7.304  57.707   6.427  1.00  0.00    -0.098 C 
ATOM     39  N7  LIG L   1       8.633  57.877   5.688  1.00  0.00     0.375 N 
ATOM     40 C29  LIG L   1       8.577  59.085   4.851  1.00  0.00    -0.096 C 
ATOM     41  H4  LIG L   1       8.786  57.081   5.068  1.00  0.00    -0.082 HD
ENDBRANCH   32   33
ENDBRANCH   31   32
ENDBRANCH   23   26
ENDBRANCH    5   22
TORSDOF 7
ENDMDL
MODEL 5
REMARK VINA RESULT:     0.000      9.280     11.372
REMARK INTER + INTRA:          -1.334
REMARK INTER:                   0.000
REMARK INTRA:                  -1.334
REMARK UNBOUND:                -1.334
REMARK Flexibility Score: inf
REMARK Active torsions [ 7 ] -> [ 7 ]
ROOT
ATOM      1  C1  LIG L   1      23.574  65.984  14.766  1.00  0.00     0.038 A 
ATOM      2  C2  LIG L   1      22.801  67.204  14.504  1.00  0.00    -0.029 A 
ATOM      3  C3  LIG L   1      22.094  67.807  15.597  1.00  0.00     0.007 A 
ATOM      4  C4  LIG L   1      22.147  67.227  16.916  1.00  0.00     0.024 A 
ATOM      5  C5  LIG L   1      22.900  66.045  17.175  1.00  0.00     0.035 A 
ATOM      6  C6  LIG L   1      23.617  65.428  16.070  1.00  0.00     0.047 A 
ATOM      7  C7  LIG L   1      22.714  67.873  13.112  1.00  0.00     0.045 C 
ENDROOT
BRANCH    1    8
ATOM      8  N1  LIG L   1      24.281  65.350  13.742  1.00  0.00    -0.283 N 
ATOM      9  H1  LIG L   1      25.043  65.810  13.320  1.00  0.00     0.155 HD
BRANCH    8   10
ATOM     10  C8  LIG L   1      23.922  64.082  13.313  1.00  0.00     0.220 A 
ATOM     11  C9  LIG L   1      22.203  62.652  12.492  1.00  0.00     0.077 A 
ATOM     12 C10  LIG L   1      23.112  61.544  12.449  1.00  0.00     0.048 A 
ATOM     13  N2  LIG L   1      22.646  63.883  12.922  1.00  0.00    -0.214 NA
ATOM     14 C11  LIG L   1      24.443  61.780  12.862  1.00  0.00     0.116 A 
ATOM     15  N3  LIG L   1      24.824  63.035  13.285  1.00  0.00    -0.223 NA
BRANCH   11   16
ATOM     16 C12  LIG L   1      20.763  62.560  12.091  1.00  0.00     0.019 A 
ATOM     17 C13  LIG L   1      18.650  61.263  11.626  1.00  0.00     0.020 A 
ATOM     18 C14  LIG L   1      20.040  61.297  12.018  1.00  0.00     0.013 A 
ATOM     19 C15  LIG L   1      18.001  62.507  11.306  1.00  0.00     0.111 A 
ATOM     20  N4  LIG L   1      18.707  63.717  11.380  1.00  0.00    -0.263 NA
ATOM     21 C16  LIG L   1      20.045  63.781  11.757  1.00  0.00     0.120 A 
ENDBRANCH   11   16
ENDBRANCH    8   10
ENDBRANCH    1    8
BRANCH    5   22
ATOM     22  N5  LIG L   1      22.913  65.530  18.522  1.00  0.00    -0.281 N 
ATOM     23 C17  LIG L   1      22.215  64.444  19.025  1.00  0.00     0.248 C 
ATOM     24  H2  LIG L   1      23.487  66.009  19.162  1.00  0.00     0.155 HD
ATOM     25  O1  LIG L   1      21.304  63.877  18.440  1.00  0.00    -0.270 OA
BRANCH   23   26
ATOM     26 C18  LIG L   1      22.571  63.922  20.379  1.00  0.00     0.037 A 
ATOM     27 C19  LIG L   1      21.944  62.711  20.916  1.00  0.00     0.013 A 
ATOM     28 C20  LIG L   1      23.546  64.639  21.173  1.00  0.00     0.013 A 
ATOM     29 C21  LIG L   1      22.292  62.238  22.232  1.00  0.00     0.002 A 
ATOM     30 C22  LIG L   1      23.886  64.172  22.462  1.00  0.00     0.002 A 
ATOM     31 C23  LIG L   1      23.276  62.977  23.021  1.00  0.00    -0.064 A 
BRANCH   31   32
ATOM     32 C24  LIG L   1      23.692  62.557  24.443  1.00  0.00    -0.043 C 
BRANCH   32   33
ATOM     33  N6  LIG L   1      23.444  63.534  25.545  1.00  0.00     0.380 N 
ATOM     34 C25  LIG L   1      21.965  63.780  25.712  1.00  0.00    -0.097 C 
ATOM     35 C26  LIG L   1      24.054  63.072  26.871  1.00  0.00    -0.097 C 
ATOM     36  H3  LIG L   1      23.901  64.407  25.281  1.00  0.00    -0.082 HD
ATOM     37 C27  LIG L   1      21.685  64.811  26.842  1.00  0.00    -0.098 C 
ATOM     38 C28  LIG L   1      23.804  64.116  28.007  1.00  0.00    -0.098 C 
ATOM     39  N7  LIG L   1      22.301  64.353  28.156  1.00  0.00     0.375 N 
ATOM     40 C29  LIG L   1      22.059  65.291  29.263  1.00  0.00    -0.096 C 
ATOM     41  H4  LIG L   1      21.836  63.476  28.391  1.00  0.00    -0.082 HD
ENDBRANCH   32   33
ENDBRANCH   31   32
ENDBRANCH   23   26
ENDBRANCH    5   22
TORSDOF 7
ENDMDL
