ROOT
ATOM      2  C2  UNL A   1      -3.085  -0.399   0.180  1.00  0.00    +0.000 C 
ATOM      3  C3  UNL A   1      -4.023   0.059   1.310  1.00  0.00    +0.000 C 
ATOM      4  C4  UNL A   1      -3.510  -0.235   2.715  1.00  0.00    +0.000 C 
ATOM      5  C5  UNL A   1      -3.153  -1.717   2.891  1.00  0.00    +0.000 C 
ATOM      6  C6  UNL A   1      -2.086  -2.134   1.851  1.00  0.00    +0.000 C 
ATOM      7  C7  UNL A   1      -2.527  -1.826   0.394  1.00  0.00    +0.000 C 
ATOM      8  C8  UNL A   1      -1.325  -1.878  -0.572  1.00  0.00    +0.000 C 
ATOM      9  C9  UNL A   1      -0.815  -0.439  -0.702  1.00  0.00    +0.000 C 
ATOM     10  C10 UNL A   1      -1.788   0.432   0.095  1.00  0.00    +0.000 C 
ATOM     12  C11 UNL A   1      -1.658  -3.620   1.992  1.00  0.00    +0.000 C 
ATOM     13  C12 UNL A   1      -2.142  -4.322   3.262  1.00  0.00    +0.000 C 
ATOM     14  C13 UNL A   1      -2.142  -3.397   4.446  1.00  0.00    +0.000 C 
ATOM     15  C14 UNL A   1      -2.657  -2.094   4.283  1.00  0.00    +0.000 C 
ATOM     16  C15 UNL A   1      -2.703  -1.245   5.397  1.00  0.00    +0.000 C 
ATOM     17  C16 UNL A   1      -2.245  -1.678   6.645  1.00  0.00    +0.000 C 
ATOM     18  C17 UNL A   1      -1.745  -2.968   6.785  1.00  0.00    +0.000 C 
ATOM     19  C18 UNL A   1      -1.696  -3.831   5.699  1.00  0.00    +0.000 C 
ATOM     24  H4  UNL A   1      -4.223   1.134   1.220  1.00  0.00    +0.000 H 
ATOM     25  H5  UNL A   1      -4.993  -0.444   1.199  1.00  0.00    +0.000 H 
ATOM     26  H6  UNL A   1      -4.298   0.050   3.424  1.00  0.00    +0.000 H 
ATOM     27  H7  UNL A   1      -2.645   0.401   2.941  1.00  0.00    +0.000 H 
ATOM     28  H8  UNL A   1      -4.071  -2.297   2.716  1.00  0.00    +0.000 H 
ATOM     29  H9  UNL A   1      -1.185  -1.539   2.066  1.00  0.00    +0.000 H 
ATOM     30  H10 UNL A   1      -3.276  -2.572   0.099  1.00  0.00    +0.000 H 
ATOM     31  H11 UNL A   1      -0.529  -2.554  -0.246  1.00  0.00    +0.000 H 
ATOM     32  H12 UNL A   1      -1.655  -2.235  -1.555  1.00  0.00    +0.000 H 
ATOM     33  H13 UNL A   1       0.198  -0.346  -0.295  1.00  0.00    +0.000 H 
ATOM     34  H14 UNL A   1      -0.760  -0.140  -1.755  1.00  0.00    +0.000 H 
ATOM     35  H15 UNL A   1      -1.369   0.620   1.089  1.00  0.00    +0.000 H 
ATOM     37  H17 UNL A   1      -1.980  -4.214   1.129  1.00  0.00    +0.000 H 
ATOM     38  H18 UNL A   1      -0.559  -3.652   1.976  1.00  0.00    +0.000 H 
ATOM     39  H19 UNL A   1      -1.512  -5.200   3.447  1.00  0.00    +0.000 H 
ATOM     40  H20 UNL A   1      -3.166  -4.691   3.115  1.00  0.00    +0.000 H 
ATOM     41  H21 UNL A   1      -3.096  -0.235   5.321  1.00  0.00    +0.000 H 
ATOM     42  H22 UNL A   1      -2.290  -0.998   7.490  1.00  0.00    +0.000 H 
ATOM     43  H23 UNL A   1      -1.312  -4.839   5.835  1.00  0.00    +0.000 H 
ENDROOT
BRANCH    2    1
ATOM      1  C1  UNL A   1      -3.887  -0.314  -1.143  1.00  0.00    +0.000 C 
ATOM     21  H1  UNL A   1      -3.277  -0.544  -2.021  1.00  0.00    +0.000 H 
ATOM     22  H2  UNL A   1      -4.726  -1.019  -1.134  1.00  0.00    +0.000 H 
ATOM     23  H3  UNL A   1      -4.303   0.689  -1.288  1.00  0.00    +0.000 H 
ENDBRANCH    2    1
BRANCH   10   11
ATOM     11  O1  UNL A   1      -1.988   1.690  -0.525  1.00  0.00    +0.000 O 
ATOM     36  H16 UNL A   1      -1.117   2.113  -0.617  1.00  0.00    +0.000 H 
ENDBRANCH   10   11
BRANCH   18   20
ATOM     44  H24 UNL A   1      -1.396  -2.722   8.644  1.00  0.00    +0.000 H 
ATOM     20  O2  UNL A   1      -1.294  -3.429   7.986  1.00  0.00    +0.000 O 
ENDBRANCH   18   20
TORSDOF 3
