MODEL 1
REMARK VINA RESULT:    -8.764      0.000      0.000
REMARK INTER + INTRA:          -9.532
REMARK INTER:                  -9.532
REMARK INTRA:                   0.000
REMARK UNBOUND:                 0.000
ROOT
ATOM      2  C2  UNL A   1       9.766  -7.981  -1.680  1.00  0.00    +0.000 C 
ATOM      3  C3  UNL A   1       9.162  -7.719  -0.290  1.00  0.00    +0.000 C 
ATOM      4  C4  UNL A   1       9.712  -6.486   0.416  1.00  0.00    +0.000 C 
ATOM      5  C5  UNL A   1      11.244  -6.518   0.502  1.00  0.00    +0.000 C 
ATOM      6  C6  UNL A   1      11.854  -6.619  -0.916  1.00  0.00    +0.000 C 
ATOM      7  C7  UNL A   1      11.306  -7.836  -1.711  1.00  0.00    +0.000 C 
ATOM      8  C8  UNL A   1      11.613  -7.698  -3.217  1.00  0.00    +0.000 C 
ATOM      9  C9  UNL A   1      10.373  -7.060  -3.852  1.00  0.00    +0.000 C 
ATOM     10  C10 UNL A   1       9.335  -6.940  -2.735  1.00  0.00    +0.000 C 
ATOM     12  C11 UNL A   1      13.407  -6.628  -0.903  1.00  0.00    +0.000 C 
ATOM     13  C12 UNL A   1      14.051  -6.271   0.438  1.00  0.00    +0.000 C 
ATOM     14  C13 UNL A   1      13.274  -5.213   1.168  1.00  0.00    +0.000 C 
ATOM     15  C14 UNL A   1      11.869  -5.326   1.222  1.00  0.00    +0.000 C 
ATOM     16  C15 UNL A   1      11.143  -4.368   1.943  1.00  0.00    +0.000 C 
ATOM     17  C16 UNL A   1      11.797  -3.316   2.592  1.00  0.00    +0.000 C 
ATOM     18  C17 UNL A   1      13.183  -3.225   2.529  1.00  0.00    +0.000 C 
ATOM     19  C18 UNL A   1      13.925  -4.167   1.828  1.00  0.00    +0.000 C 
ATOM     24  H4  UNL A   1       8.070  -7.631  -0.366  1.00  0.00    +0.000 H 
ATOM     25  H5  UNL A   1       9.355  -8.586   0.355  1.00  0.00    +0.000 H 
ATOM     26  H6  UNL A   1       9.278  -6.458   1.424  1.00  0.00    +0.000 H 
ATOM     27  H7  UNL A   1       9.372  -5.576  -0.094  1.00  0.00    +0.000 H 
ATOM     28  H8  UNL A   1      11.521  -7.413   1.077  1.00  0.00    +0.000 H 
ATOM     29  H9  UNL A   1      11.562  -5.703  -1.453  1.00  0.00    +0.000 H 
ATOM     30  H10 UNL A   1      11.778  -8.744  -1.315  1.00  0.00    +0.000 H 
ATOM     31  H11 UNL A   1      12.513  -7.115  -3.429  1.00  0.00    +0.000 H 
ATOM     32  H12 UNL A   1      11.772  -8.691  -3.655  1.00  0.00    +0.000 H 
ATOM     33  H13 UNL A   1      10.609  -6.069  -4.258  1.00  0.00    +0.000 H 
ATOM     34  H14 UNL A   1      10.010  -7.665  -4.690  1.00  0.00    +0.000 H 
ATOM     35  H15 UNL A   1       9.363  -5.924  -2.327  1.00  0.00    +0.000 H 
ATOM     37  H17 UNL A   1      13.806  -7.596  -1.227  1.00  0.00    +0.000 H 
ATOM     38  H18 UNL A   1      13.749  -5.903  -1.655  1.00  0.00    +0.000 H 
ATOM     39  H19 UNL A   1      15.085  -5.951   0.264  1.00  0.00    +0.000 H 
ATOM     40  H20 UNL A   1      14.099  -7.163   1.076  1.00  0.00    +0.000 H 
ATOM     41  H21 UNL A   1      10.061  -4.418   2.017  1.00  0.00    +0.000 H 
ATOM     42  H22 UNL A   1      11.210  -2.587   3.140  1.00  0.00    +0.000 H 
ATOM     43  H23 UNL A   1      15.009  -4.081   1.803  1.00  0.00    +0.000 H 
ENDROOT
BRANCH    2    1
ATOM      1  C1  UNL A   1       9.339  -9.409  -2.103  1.00  0.00    +0.000 C 
ATOM     21  H1  UNL A   1       8.557  -9.824  -1.460  1.00  0.00    +0.000 H 
ATOM     22  H2  UNL A   1       8.953  -9.411  -3.128  1.00  0.00    +0.000 H 
ATOM     23  H3  UNL A   1      10.189 -10.100  -2.071  1.00  0.00    +0.000 H 
ENDBRANCH    2    1
BRANCH   10   11
ATOM     11  O1  UNL A   1       8.022  -7.166  -3.218  1.00  0.00    +0.000 O 
ATOM     36  H16 UNL A   1       7.460  -6.446  -2.884  1.00  0.00    +0.000 H 
ENDBRANCH   10   11
BRANCH   18   20
ATOM     44  H24 UNL A   1      13.934  -2.438   4.096  1.00  0.00    +0.000 H 
ATOM     20  O2  UNL A   1      13.858  -2.218   3.153  1.00  0.00    +0.000 O 
ENDBRANCH   18   20
TORSDOF 3
ENDMDL
MODEL 2
REMARK VINA RESULT:    -7.723      1.476      2.092
REMARK INTER + INTRA:          -8.400
REMARK INTER:                  -8.400
REMARK INTRA:                   0.000
REMARK UNBOUND:                 0.000
ROOT
ATOM      2  C2  UNL A   1       8.806  -7.475  -3.774  1.00  0.00    +0.000 C 
ATOM      3  C3  UNL A   1       8.194  -7.398  -2.365  1.00  0.00    +0.000 C 
ATOM      4  C4  UNL A   1       8.963  -6.516  -1.389  1.00  0.00    +0.000 C 
ATOM      5  C5  UNL A   1      10.441  -6.921  -1.302  1.00  0.00    +0.000 C 
ATOM      6  C6  UNL A   1      11.097  -6.841  -2.702  1.00  0.00    +0.000 C 
ATOM      7  C7  UNL A   1      10.338  -7.688  -3.761  1.00  0.00    +0.000 C 
ATOM      8  C8  UNL A   1      10.758  -7.292  -5.191  1.00  0.00    +0.000 C 
ATOM      9  C9  UNL A   1       9.733  -6.257  -5.670  1.00  0.00    +0.000 C 
ATOM     10  C10 UNL A   1       8.683  -6.153  -4.562  1.00  0.00    +0.000 C 
ATOM     12  C11 UNL A   1      12.604  -7.212  -2.681  1.00  0.00    +0.000 C 
ATOM     13  C12 UNL A   1      13.230  -7.324  -1.290  1.00  0.00    +0.000 C 
ATOM     14  C13 UNL A   1      12.668  -6.305  -0.339  1.00  0.00    +0.000 C 
ATOM     15  C14 UNL A   1      11.272  -6.099  -0.322  1.00  0.00    +0.000 C 
ATOM     16  C15 UNL A   1      10.738  -5.185   0.596  1.00  0.00    +0.000 C 
ATOM     17  C16 UNL A   1      11.572  -4.486   1.475  1.00  0.00    +0.000 C 
ATOM     18  C17 UNL A   1      12.944  -4.708   1.444  1.00  0.00    +0.000 C 
ATOM     19  C18 UNL A   1      13.497  -5.614   0.550  1.00  0.00    +0.000 C 
ATOM     24  H4  UNL A   1       7.156  -7.044  -2.426  1.00  0.00    +0.000 H 
ATOM     25  H5  UNL A   1       8.148  -8.407  -1.937  1.00  0.00    +0.000 H 
ATOM     26  H6  UNL A   1       8.487  -6.615  -0.405  1.00  0.00    +0.000 H 
ATOM     27  H7  UNL A   1       8.867  -5.462  -1.676  1.00  0.00    +0.000 H 
ATOM     28  H8  UNL A   1      10.475  -7.962  -0.949  1.00  0.00    +0.000 H 
ATOM     29  H9  UNL A   1      11.050  -5.786  -3.014  1.00  0.00    +0.000 H 
ATOM     30  H10 UNL A   1      10.570  -8.746  -3.582  1.00  0.00    +0.000 H 
ATOM     31  H11 UNL A   1      11.777  -6.901  -5.257  1.00  0.00    +0.000 H 
ATOM     32  H12 UNL A   1      10.717  -8.171  -5.846  1.00  0.00    +0.000 H 
ATOM     33  H13 UNL A   1      10.209  -5.284  -5.833  1.00  0.00    +0.000 H 
ATOM     34  H14 UNL A   1       9.295  -6.558  -6.627  1.00  0.00    +0.000 H 
ATOM     35  H15 UNL A   1       8.914  -5.289  -3.929  1.00  0.00    +0.000 H 
ATOM     37  H17 UNL A   1      12.795  -8.149  -3.218  1.00  0.00    +0.000 H 
ATOM     38  H18 UNL A   1      13.145  -6.437  -3.242  1.00  0.00    +0.000 H 
ATOM     39  H19 UNL A   1      14.318  -7.222  -1.378  1.00  0.00    +0.000 H 
ATOM     40  H20 UNL A   1      13.039  -8.323  -0.875  1.00  0.00    +0.000 H 
ATOM     41  H21 UNL A   1       9.670  -4.998   0.650  1.00  0.00    +0.000 H 
ATOM     42  H22 UNL A   1      11.131  -3.783   2.174  1.00  0.00    +0.000 H 
ATOM     43  H23 UNL A   1      14.571  -5.779   0.552  1.00  0.00    +0.000 H 
ENDROOT
BRANCH    2    1
ATOM      1  C1  UNL A   1       8.096  -8.633  -4.519  1.00  0.00    +0.000 C 
ATOM     21  H1  UNL A   1       7.132  -8.894  -4.072  1.00  0.00    +0.000 H 
ATOM     22  H2  UNL A   1       7.908  -8.365  -5.565  1.00  0.00    +0.000 H 
ATOM     23  H3  UNL A   1       8.712  -9.538  -4.518  1.00  0.00    +0.000 H 
ENDBRANCH    2    1
BRANCH   10   11
ATOM     11  O1  UNL A   1       7.385  -5.955  -5.092  1.00  0.00    +0.000 O 
ATOM     36  H16 UNL A   1       6.844  -5.546  -4.395  1.00  0.00    +0.000 H 
ENDBRANCH   10   11
BRANCH   18   20
ATOM     44  H24 UNL A   1      14.691  -4.375   2.135  1.00  0.00    +0.000 H 
ATOM     20  O2  UNL A   1      13.788  -4.051   2.289  1.00  0.00    +0.000 O 
ENDBRANCH   18   20
TORSDOF 3
ENDMDL
MODEL 3
REMARK VINA RESULT:    -7.710      1.713      6.523
REMARK INTER + INTRA:          -8.387
REMARK INTER:                  -8.387
REMARK INTRA:                   0.000
REMARK UNBOUND:                 0.000
ROOT
ATOM      2  C2  UNL A   1      12.395  -6.349   0.378  1.00  0.00    +0.000 C 
ATOM      3  C3  UNL A   1      13.074  -6.992  -0.842  1.00  0.00    +0.000 C 
ATOM      4  C4  UNL A   1      12.357  -6.753  -2.165  1.00  0.00    +0.000 C 
ATOM      5  C5  UNL A   1      10.883  -7.176  -2.096  1.00  0.00    +0.000 C 
ATOM      6  C6  UNL A   1      10.161  -6.404  -0.966  1.00  0.00    +0.000 C 
ATOM      7  C7  UNL A   1      10.864  -6.571   0.409  1.00  0.00    +0.000 C 
ATOM      8  C8  UNL A   1      10.378  -5.506   1.414  1.00  0.00    +0.000 C 
ATOM      9  C9  UNL A   1      11.383  -4.351   1.337  1.00  0.00    +0.000 C 
ATOM     10  C10 UNL A   1      12.485  -4.808   0.380  1.00  0.00    +0.000 C 
ATOM     12  C11 UNL A   1       8.654  -6.764  -0.859  1.00  0.00    +0.000 C 
ATOM     13  C12 UNL A   1       8.095  -7.587  -2.021  1.00  0.00    +0.000 C 
ATOM     14  C13 UNL A   1       8.707  -7.188  -3.334  1.00  0.00    +0.000 C 
ATOM     15  C14 UNL A   1      10.103  -6.991  -3.394  1.00  0.00    +0.000 C 
ATOM     16  C15 UNL A   1      10.684  -6.666  -4.627  1.00  0.00    +0.000 C 
ATOM     17  C16 UNL A   1       9.897  -6.535  -5.775  1.00  0.00    +0.000 C 
ATOM     18  C17 UNL A   1       8.524  -6.738  -5.695  1.00  0.00    +0.000 C 
ATOM     19  C18 UNL A   1       7.925  -7.069  -4.487  1.00  0.00    +0.000 C 
ATOM     24  H4  UNL A   1      14.109  -6.636  -0.927  1.00  0.00    +0.000 H 
ATOM     25  H5  UNL A   1      13.136  -8.078  -0.690  1.00  0.00    +0.000 H 
ATOM     26  H6  UNL A   1      12.879  -7.332  -2.937  1.00  0.00    +0.000 H 
ATOM     27  H7  UNL A   1      12.443  -5.699  -2.456  1.00  0.00    +0.000 H 
ATOM     28  H8  UNL A   1      10.861  -8.251  -1.866  1.00  0.00    +0.000 H 
ATOM     29  H9  UNL A   1      10.197  -5.337  -1.238  1.00  0.00    +0.000 H 
ATOM     30  H10 UNL A   1      10.636  -7.575   0.789  1.00  0.00    +0.000 H 
ATOM     31  H11 UNL A   1       9.358  -5.159   1.225  1.00  0.00    +0.000 H 
ATOM     32  H12 UNL A   1      10.384  -5.924   2.428  1.00  0.00    +0.000 H 
ATOM     33  H13 UNL A   1      10.903  -3.442   0.957  1.00  0.00    +0.000 H 
ATOM     34  H14 UNL A   1      11.773  -4.109   2.332  1.00  0.00    +0.000 H 
ATOM     35  H15 UNL A   1      12.289  -4.396  -0.616  1.00  0.00    +0.000 H 
ATOM     37  H17 UNL A   1       8.434  -7.297   0.074  1.00  0.00    +0.000 H 
ATOM     38  H18 UNL A   1       8.090  -5.823  -0.799  1.00  0.00    +0.000 H 
ATOM     39  H19 UNL A   1       7.005  -7.477  -2.045  1.00  0.00    +0.000 H 
ATOM     40  H20 UNL A   1       8.302  -8.653  -1.855  1.00  0.00    +0.000 H 
ATOM     41  H21 UNL A   1      11.754  -6.511  -4.723  1.00  0.00    +0.000 H 
ATOM     42  H22 UNL A   1      10.374  -6.280  -6.716  1.00  0.00    +0.000 H 
ATOM     43  H23 UNL A   1       6.851  -7.233  -4.450  1.00  0.00    +0.000 H 
ENDROOT
BRANCH    2    1
ATOM      1  C1  UNL A   1      13.063  -6.946   1.642  1.00  0.00    +0.000 C 
ATOM     21  H1  UNL A   1      13.384  -6.178   2.352  1.00  0.00    +0.000 H 
ATOM     22  H2  UNL A   1      12.370  -7.610   2.170  1.00  0.00    +0.000 H 
ATOM     23  H3  UNL A   1      13.948  -7.536   1.378  1.00  0.00    +0.000 H 
ENDBRANCH    2    1
BRANCH   10   11
ATOM     11  O1  UNL A   1      13.757  -4.338   0.789  1.00  0.00    +0.000 O 
ATOM     36  H16 UNL A   1      14.209  -3.994   0.000  1.00  0.00    +0.000 H 
ENDBRANCH   10   11
BRANCH   18   20
ATOM     44  H24 UNL A   1       6.972  -7.231  -6.689  1.00  0.00    +0.000 H 
ATOM     20  O2  UNL A   1       7.724  -6.625  -6.793  1.00  0.00    +0.000 O 
ENDBRANCH   18   20
TORSDOF 3
ENDMDL
MODEL 4
REMARK VINA RESULT:    -6.891      1.880      3.515
REMARK INTER + INTRA:          -7.495
REMARK INTER:                  -7.495
REMARK INTRA:                   0.000
REMARK UNBOUND:                 0.000
ROOT
ATOM      2  C2  UNL A   1      10.685  -9.271  -3.792  1.00  0.00    +0.000 C 
ATOM      3  C3  UNL A   1      11.595  -8.087  -4.159  1.00  0.00    +0.000 C 
ATOM      4  C4  UNL A   1      12.252  -7.401  -2.968  1.00  0.00    +0.000 C 
ATOM      5  C5  UNL A   1      11.217  -6.969  -1.920  1.00  0.00    +0.000 C 
ATOM      6  C6  UNL A   1      10.410  -8.195  -1.433  1.00  0.00    +0.000 C 
ATOM      7  C7  UNL A   1       9.742  -8.968  -2.603  1.00  0.00    +0.000 C 
ATOM      8  C8  UNL A   1       9.287 -10.372  -2.153  1.00  0.00    +0.000 C 
ATOM      9  C9  UNL A   1      10.426 -11.331  -2.517  1.00  0.00    +0.000 C 
ATOM     10  C10 UNL A   1      11.465 -10.495  -3.265  1.00  0.00    +0.000 C 
ATOM     12  C11 UNL A   1       9.361  -7.832  -0.348  1.00  0.00    +0.000 C 
ATOM     13  C12 UNL A   1       9.484  -6.422   0.235  1.00  0.00    +0.000 C 
ATOM     14  C13 UNL A   1      10.919  -5.996   0.367  1.00  0.00    +0.000 C 
ATOM     15  C14 UNL A   1      11.798  -6.249  -0.707  1.00  0.00    +0.000 C 
ATOM     16  C15 UNL A   1      13.126  -5.810  -0.608  1.00  0.00    +0.000 C 
ATOM     17  C16 UNL A   1      13.572  -5.138   0.534  1.00  0.00    +0.000 C 
ATOM     18  C17 UNL A   1      12.688  -4.895   1.579  1.00  0.00    +0.000 C 
ATOM     19  C18 UNL A   1      11.366  -5.313   1.502  1.00  0.00    +0.000 C 
ATOM     24  H4  UNL A   1      12.375  -8.415  -4.859  1.00  0.00    +0.000 H 
ATOM     25  H5  UNL A   1      11.004  -7.331  -4.693  1.00  0.00    +0.000 H 
ATOM     26  H6  UNL A   1      12.795  -6.525  -3.346  1.00  0.00    +0.000 H 
ATOM     27  H7  UNL A   1      13.004  -8.063  -2.520  1.00  0.00    +0.000 H 
ATOM     28  H8  UNL A   1      10.533  -6.260  -2.409  1.00  0.00    +0.000 H 
ATOM     29  H9  UNL A   1      11.127  -8.873  -0.944  1.00  0.00    +0.000 H 
ATOM     30  H10 UNL A   1       8.877  -8.387  -2.947  1.00  0.00    +0.000 H 
ATOM     31  H11 UNL A   1       9.041 -10.432  -1.089  1.00  0.00    +0.000 H 
ATOM     32  H12 UNL A   1       8.382 -10.661  -2.700  1.00  0.00    +0.000 H 
ATOM     33  H13 UNL A   1      10.869 -11.769  -1.616  1.00  0.00    +0.000 H 
ATOM     34  H14 UNL A   1      10.053 -12.165  -3.123  1.00  0.00    +0.000 H 
ATOM     35  H15 UNL A   1      12.254 -10.194  -2.567  1.00  0.00    +0.000 H 
ATOM     37  H17 UNL A   1       8.337  -7.959  -0.720  1.00  0.00    +0.000 H 
ATOM     38  H18 UNL A   1       9.467  -8.555   0.473  1.00  0.00    +0.000 H 
ATOM     39  H19 UNL A   1       8.973  -6.390   1.204  1.00  0.00    +0.000 H 
ATOM     40  H20 UNL A   1       8.972  -5.704  -0.418  1.00  0.00    +0.000 H 
ATOM     41  H21 UNL A   1      13.837  -5.977  -1.411  1.00  0.00    +0.000 H 
ATOM     42  H22 UNL A   1      14.606  -4.812   0.585  1.00  0.00    +0.000 H 
ATOM     43  H23 UNL A   1      10.691  -5.102   2.327  1.00  0.00    +0.000 H 
ENDROOT
BRANCH    2    1
ATOM      1  C1  UNL A   1       9.873  -9.635  -5.060  1.00  0.00    +0.000 C 
ATOM     21  H1  UNL A   1      10.402 -10.335  -5.714  1.00  0.00    +0.000 H 
ATOM     22  H2  UNL A   1       8.918 -10.100  -4.789  1.00  0.00    +0.000 H 
ATOM     23  H3  UNL A   1       9.647  -8.742  -5.653  1.00  0.00    +0.000 H 
ENDBRANCH    2    1
BRANCH   10   11
ATOM     11  O1  UNL A   1      12.080 -11.236  -4.304  1.00  0.00    +0.000 O 
ATOM     36  H16 UNL A   1      12.846 -10.724  -4.615  1.00  0.00    +0.000 H 
ENDBRANCH   10   11
BRANCH   18   20
ATOM     44  H24 UNL A   1      12.728  -4.710   3.478  1.00  0.00    +0.000 H 
ATOM     20  O2  UNL A   1      13.084  -4.239   2.707  1.00  0.00    +0.000 O 
ENDBRANCH   18   20
TORSDOF 3
ENDMDL
MODEL 5
REMARK VINA RESULT:    -6.825      4.982      7.060
REMARK INTER + INTRA:          -7.424
REMARK INTER:                  -7.424
REMARK INTRA:                   0.000
REMARK UNBOUND:                 0.000
ROOT
ATOM      2  C2  UNL A   1       4.178  -8.955   3.353  1.00  0.00    +0.000 C 
ATOM      3  C3  UNL A   1       4.067  -8.284   1.974  1.00  0.00    +0.000 C 
ATOM      4  C4  UNL A   1       5.382  -8.186   1.210  1.00  0.00    +0.000 C 
ATOM      5  C5  UNL A   1       6.474  -7.504   2.045  1.00  0.00    +0.000 C 
ATOM      6  C6  UNL A   1       6.696  -8.279   3.365  1.00  0.00    +0.000 C 
ATOM      7  C7  UNL A   1       5.385  -8.451   4.180  1.00  0.00    +0.000 C 
ATOM      8  C8  UNL A   1       5.543  -9.537   5.263  1.00  0.00    +0.000 C 
ATOM      9  C9  UNL A   1       5.020 -10.840   4.647  1.00  0.00    +0.000 C 
ATOM     10  C10 UNL A   1       4.470 -10.469   3.269  1.00  0.00    +0.000 C 
ATOM     12  C11 UNL A   1       7.811  -7.656   4.248  1.00  0.00    +0.000 C 
ATOM     13  C12 UNL A   1       8.660  -6.582   3.566  1.00  0.00    +0.000 C 
ATOM     14  C13 UNL A   1       8.901  -6.895   2.116  1.00  0.00    +0.000 C 
ATOM     15  C14 UNL A   1       7.815  -7.345   1.336  1.00  0.00    +0.000 C 
ATOM     16  C15 UNL A   1       8.024  -7.593  -0.028  1.00  0.00    +0.000 C 
ATOM     17  C16 UNL A   1       9.284  -7.403  -0.604  1.00  0.00    +0.000 C 
ATOM     18  C17 UNL A   1      10.339  -6.955   0.182  1.00  0.00    +0.000 C 
ATOM     19  C18 UNL A   1      10.156  -6.694   1.534  1.00  0.00    +0.000 C 
ATOM     24  H4  UNL A   1       3.332  -8.816   1.355  1.00  0.00    +0.000 H 
ATOM     25  H5  UNL A   1       3.680  -7.264   2.100  1.00  0.00    +0.000 H 
ATOM     26  H6  UNL A   1       5.193  -7.612   0.294  1.00  0.00    +0.000 H 
ATOM     27  H7  UNL A   1       5.706  -9.184   0.890  1.00  0.00    +0.000 H 
ATOM     28  H8  UNL A   1       6.120  -6.490   2.280  1.00  0.00    +0.000 H 
ATOM     29  H9  UNL A   1       7.057  -9.282   3.087  1.00  0.00    +0.000 H 
ATOM     30  H10 UNL A   1       5.145  -7.488   4.648  1.00  0.00    +0.000 H 
ATOM     31  H11 UNL A   1       6.570  -9.652   5.623  1.00  0.00    +0.000 H 
ATOM     32  H12 UNL A   1       4.932  -9.280   6.138  1.00  0.00    +0.000 H 
ATOM     33  H13 UNL A   1       5.826 -11.575   4.548  1.00  0.00    +0.000 H 
ATOM     34  H14 UNL A   1       4.256 -11.294   5.288  1.00  0.00    +0.000 H 
ATOM     35  H15 UNL A   1       5.229 -10.687   2.509  1.00  0.00    +0.000 H 
ATOM     37  H17 UNL A   1       7.402  -7.232   5.173  1.00  0.00    +0.000 H 
ATOM     38  H18 UNL A   1       8.477  -8.471   4.568  1.00  0.00    +0.000 H 
ATOM     39  H19 UNL A   1       9.607  -6.476   4.108  1.00  0.00    +0.000 H 
ATOM     40  H20 UNL A   1       8.151  -5.611   3.627  1.00  0.00    +0.000 H 
ATOM     41  H21 UNL A   1       7.217  -7.935  -0.669  1.00  0.00    +0.000 H 
ATOM     42  H22 UNL A   1       9.417  -7.605  -1.662  1.00  0.00    +0.000 H 
ATOM     43  H23 UNL A   1      10.993  -6.334   2.126  1.00  0.00    +0.000 H 
ENDROOT
BRANCH    2    1
ATOM      1  C1  UNL A   1       2.848  -8.687   4.101  1.00  0.00    +0.000 C 
ATOM     21  H1  UNL A   1       2.104  -8.188   3.473  1.00  0.00    +0.000 H 
ATOM     22  H2  UNL A   1       2.403  -9.626   4.450  1.00  0.00    +0.000 H 
ATOM     23  H3  UNL A   1       3.011  -8.054   4.980  1.00  0.00    +0.000 H 
ENDBRANCH    2    1
BRANCH   10   11
ATOM     11  O1  UNL A   1       3.318 -11.228   2.946  1.00  0.00    +0.000 O 
ATOM     36  H16 UNL A   1       2.544 -10.733   3.264  1.00  0.00    +0.000 H 
ENDBRANCH   10   11
BRANCH   18   20
ATOM     44  H24 UNL A   1      12.217  -6.687   0.387  1.00  0.00    +0.000 H 
ATOM     20  O2  UNL A   1      11.580  -6.752  -0.343  1.00  0.00    +0.000 O 
ENDBRANCH   18   20
TORSDOF 3
ENDMDL
