MODEL 1
REMARK VINA RESULT:    -8.757      0.000      0.000
REMARK INTER + INTRA:          -9.525
REMARK INTER:                  -9.525
REMARK INTRA:                   0.000
REMARK UNBOUND:                 0.000
ROOT
ATOM      2  C2  UNL A   1       9.756  -7.990  -1.684  1.00  0.00    +0.000 C 
ATOM      3  C3  UNL A   1       9.151  -7.729  -0.294  1.00  0.00    +0.000 C 
ATOM      4  C4  UNL A   1       9.697  -6.493   0.411  1.00  0.00    +0.000 C 
ATOM      5  C5  UNL A   1      11.229  -6.520   0.497  1.00  0.00    +0.000 C 
ATOM      6  C6  UNL A   1      11.840  -6.621  -0.921  1.00  0.00    +0.000 C 
ATOM      7  C7  UNL A   1      11.296  -7.840  -1.715  1.00  0.00    +0.000 C 
ATOM      8  C8  UNL A   1      11.602  -7.703  -3.220  1.00  0.00    +0.000 C 
ATOM      9  C9  UNL A   1      10.360  -7.070  -3.857  1.00  0.00    +0.000 C 
ATOM     10  C10 UNL A   1       9.322  -6.952  -2.740  1.00  0.00    +0.000 C 
ATOM     12  C11 UNL A   1      13.392  -6.625  -0.908  1.00  0.00    +0.000 C 
ATOM     13  C12 UNL A   1      14.035  -6.265   0.433  1.00  0.00    +0.000 C 
ATOM     14  C13 UNL A   1      13.255  -5.208   1.162  1.00  0.00    +0.000 C 
ATOM     15  C14 UNL A   1      11.850  -5.326   1.216  1.00  0.00    +0.000 C 
ATOM     16  C15 UNL A   1      11.122  -4.369   1.935  1.00  0.00    +0.000 C 
ATOM     17  C16 UNL A   1      11.772  -3.314   2.583  1.00  0.00    +0.000 C 
ATOM     18  C17 UNL A   1      13.158  -3.219   2.521  1.00  0.00    +0.000 C 
ATOM     19  C18 UNL A   1      13.903  -4.159   1.821  1.00  0.00    +0.000 C 
ATOM     24  H4  UNL A   1       8.059  -7.644  -0.370  1.00  0.00    +0.000 H 
ATOM     25  H5  UNL A   1       9.346  -8.594   0.353  1.00  0.00    +0.000 H 
ATOM     26  H6  UNL A   1       9.263  -6.465   1.419  1.00  0.00    +0.000 H 
ATOM     27  H7  UNL A   1       9.354  -5.585  -0.100  1.00  0.00    +0.000 H 
ATOM     28  H8  UNL A   1      11.509  -7.414   1.073  1.00  0.00    +0.000 H 
ATOM     29  H9  UNL A   1      11.545  -5.707  -1.459  1.00  0.00    +0.000 H 
ATOM     30  H10 UNL A   1      11.771  -8.747  -1.317  1.00  0.00    +0.000 H 
ATOM     31  H11 UNL A   1      12.501  -7.118  -3.433  1.00  0.00    +0.000 H 
ATOM     32  H12 UNL A   1      11.765  -8.697  -3.657  1.00  0.00    +0.000 H 
ATOM     33  H13 UNL A   1      10.594  -6.079  -4.263  1.00  0.00    +0.000 H 
ATOM     34  H14 UNL A   1       9.999  -7.677  -4.694  1.00  0.00    +0.000 H 
ATOM     35  H15 UNL A   1       9.346  -5.935  -2.333  1.00  0.00    +0.000 H 
ATOM     37  H17 UNL A   1      13.795  -7.593  -1.231  1.00  0.00    +0.000 H 
ATOM     38  H18 UNL A   1      13.733  -5.900  -1.660  1.00  0.00    +0.000 H 
ATOM     39  H19 UNL A   1      15.068  -5.941   0.258  1.00  0.00    +0.000 H 
ATOM     40  H20 UNL A   1      14.086  -7.156   1.072  1.00  0.00    +0.000 H 
ATOM     41  H21 UNL A   1      10.040  -4.422   2.010  1.00  0.00    +0.000 H 
ATOM     42  H22 UNL A   1      11.183  -2.586   3.131  1.00  0.00    +0.000 H 
ATOM     43  H23 UNL A   1      14.986  -4.070   1.795  1.00  0.00    +0.000 H 
ENDROOT
BRANCH    2    1
ATOM      1  C1  UNL A   1       9.334  -9.420  -2.105  1.00  0.00    +0.000 C 
ATOM     21  H1  UNL A   1       8.660  -9.424  -2.967  1.00  0.00    +0.000 H 
ATOM     22  H2  UNL A   1      10.210 -10.020  -2.374  1.00  0.00    +0.000 H 
ATOM     23  H3  UNL A   1       8.820  -9.936  -1.287  1.00  0.00    +0.000 H 
ENDBRANCH    2    1
BRANCH   10   11
ATOM     11  O1  UNL A   1       8.010  -7.182  -3.222  1.00  0.00    +0.000 O 
ATOM     36  H16 UNL A   1       8.038  -7.109  -4.191  1.00  0.00    +0.000 H 
ENDBRANCH   10   11
BRANCH   18   20
ATOM     44  H24 UNL A   1      14.765  -2.460   3.214  1.00  0.00    +0.000 H 
ATOM     20  O2  UNL A   1      13.829  -2.209   3.143  1.00  0.00    +0.000 O 
ENDBRANCH   18   20
TORSDOF 3
ENDMDL
MODEL 2
REMARK VINA RESULT:    -8.091      1.208      1.435
REMARK INTER + INTRA:          -8.800
REMARK INTER:                  -8.800
REMARK INTRA:                   0.000
REMARK UNBOUND:                 0.000
ROOT
ATOM      2  C2  UNL A   1       9.103  -7.746  -3.190  1.00  0.00    +0.000 C 
ATOM      3  C3  UNL A   1       8.435  -7.578  -1.815  1.00  0.00    +0.000 C 
ATOM      4  C4  UNL A   1       9.095  -6.544  -0.913  1.00  0.00    +0.000 C 
ATOM      5  C5  UNL A   1      10.596  -6.814  -0.742  1.00  0.00    +0.000 C 
ATOM      6  C6  UNL A   1      11.295  -6.822  -2.122  1.00  0.00    +0.000 C 
ATOM      7  C7  UNL A   1      10.647  -7.830  -3.110  1.00  0.00    +0.000 C 
ATOM      8  C8  UNL A   1      11.087  -7.546  -4.561  1.00  0.00    +0.000 C 
ATOM      9  C9  UNL A   1      10.002  -6.652  -5.173  1.00  0.00    +0.000 C 
ATOM     10  C10 UNL A   1       8.907  -6.524  -4.113  1.00  0.00    +0.000 C 
ATOM     12  C11 UNL A   1      12.825  -7.063  -2.019  1.00  0.00    +0.000 C 
ATOM     13  C12 UNL A   1      13.406  -6.983  -0.606  1.00  0.00    +0.000 C 
ATOM     14  C13 UNL A   1      12.730  -5.924   0.218  1.00  0.00    +0.000 C 
ATOM     15  C14 UNL A   1      11.323  -5.833   0.173  1.00  0.00    +0.000 C 
ATOM     16  C15 UNL A   1      10.684  -4.878   0.976  1.00  0.00    +0.000 C 
ATOM     17  C16 UNL A   1      11.426  -4.029   1.802  1.00  0.00    +0.000 C 
ATOM     18  C17 UNL A   1      12.812  -4.139   1.835  1.00  0.00    +0.000 C 
ATOM     19  C18 UNL A   1      13.467  -5.082   1.055  1.00  0.00    +0.000 C 
ATOM     24  H4  UNL A   1       7.375  -7.319  -1.942  1.00  0.00    +0.000 H 
ATOM     25  H5  UNL A   1       8.453  -8.540  -1.287  1.00  0.00    +0.000 H 
ATOM     26  H6  UNL A   1       8.591  -6.582   0.062  1.00  0.00    +0.000 H 
ATOM     27  H7  UNL A   1       8.927  -5.535  -1.310  1.00  0.00    +0.000 H 
ATOM     28  H8  UNL A   1      10.699  -7.808  -0.283  1.00  0.00    +0.000 H 
ATOM     29  H9  UNL A   1      11.177  -5.811  -2.543  1.00  0.00    +0.000 H 
ATOM     30  H10 UNL A   1      10.954  -8.842  -2.817  1.00  0.00    +0.000 H 
ATOM     31  H11 UNL A   1      12.074  -7.081  -4.636  1.00  0.00    +0.000 H 
ATOM     32  H12 UNL A   1      11.140  -8.487  -5.123  1.00  0.00    +0.000 H 
ATOM     33  H13 UNL A   1      10.406  -5.665  -5.422  1.00  0.00    +0.000 H 
ATOM     34  H14 UNL A   1       9.625  -7.083  -6.107  1.00  0.00    +0.000 H 
ATOM     35  H15 UNL A   1       9.044  -5.585  -3.566  1.00  0.00    +0.000 H 
ATOM     37  H17 UNL A   1      13.109  -8.031  -2.451  1.00  0.00    +0.000 H 
ATOM     38  H18 UNL A   1      13.324  -6.307  -2.641  1.00  0.00    +0.000 H 
ATOM     39  H19 UNL A   1      14.485  -6.801  -0.672  1.00  0.00    +0.000 H 
ATOM     40  H20 UNL A   1      13.278  -7.948  -0.096  1.00  0.00    +0.000 H 
ATOM     41  H21 UNL A   1       9.603  -4.775   0.979  1.00  0.00    +0.000 H 
ATOM     42  H22 UNL A   1      10.905  -3.297   2.411  1.00  0.00    +0.000 H 
ATOM     43  H23 UNL A   1      14.551  -5.156   1.105  1.00  0.00    +0.000 H 
ENDROOT
BRANCH    2    1
ATOM      1  C1  UNL A   1       8.516  -9.027  -3.832  1.00  0.00    +0.000 C 
ATOM     21  H1  UNL A   1       7.775  -9.517  -3.193  1.00  0.00    +0.000 H 
ATOM     22  H2  UNL A   1       8.023  -8.794  -4.783  1.00  0.00    +0.000 H 
ATOM     23  H3  UNL A   1       9.303  -9.760  -4.041  1.00  0.00    +0.000 H 
ENDBRANCH    2    1
BRANCH   10   11
ATOM     11  O1  UNL A   1       7.618  -6.488  -4.699  1.00  0.00    +0.000 O 
ATOM     36  H16 UNL A   1       7.635  -5.817  -5.403  1.00  0.00    +0.000 H 
ENDBRANCH   10   11
BRANCH   18   20
ATOM     44  H24 UNL A   1      14.459  -3.270   2.248  1.00  0.00    +0.000 H 
ATOM     20  O2  UNL A   1      13.569  -3.333   2.632  1.00  0.00    +0.000 O 
ENDBRANCH   18   20
TORSDOF 3
ENDMDL
MODEL 3
REMARK VINA RESULT:    -7.683      1.708      6.512
REMARK INTER + INTRA:          -8.357
REMARK INTER:                  -8.357
REMARK INTRA:                   0.000
REMARK UNBOUND:                 0.000
ROOT
ATOM      2  C2  UNL A   1      12.393  -6.371   0.385  1.00  0.00    +0.000 C 
ATOM      3  C3  UNL A   1      13.056  -7.016  -0.843  1.00  0.00    +0.000 C 
ATOM      4  C4  UNL A   1      12.330  -6.765  -2.159  1.00  0.00    +0.000 C 
ATOM      5  C5  UNL A   1      10.853  -7.174  -2.079  1.00  0.00    +0.000 C 
ATOM      6  C6  UNL A   1      10.148  -6.399  -0.940  1.00  0.00    +0.000 C 
ATOM      7  C7  UNL A   1      10.860  -6.579   0.428  1.00  0.00    +0.000 C 
ATOM      8  C8  UNL A   1      10.392  -5.513   1.441  1.00  0.00    +0.000 C 
ATOM      9  C9  UNL A   1      11.407  -4.368   1.360  1.00  0.00    +0.000 C 
ATOM     10  C10 UNL A   1      12.497  -4.831   0.392  1.00  0.00    +0.000 C 
ATOM     12  C11 UNL A   1       8.639  -6.746  -0.822  1.00  0.00    +0.000 C 
ATOM     13  C12 UNL A   1       8.062  -7.559  -1.983  1.00  0.00    +0.000 C 
ATOM     14  C13 UNL A   1       8.667  -7.161  -3.299  1.00  0.00    +0.000 C 
ATOM     15  C14 UNL A   1      10.064  -6.977  -3.370  1.00  0.00    +0.000 C 
ATOM     16  C15 UNL A   1      10.638  -6.653  -4.607  1.00  0.00    +0.000 C 
ATOM     17  C16 UNL A   1       9.843  -6.510  -5.748  1.00  0.00    +0.000 C 
ATOM     18  C17 UNL A   1       8.469  -6.700  -5.657  1.00  0.00    +0.000 C 
ATOM     19  C18 UNL A   1       7.877  -7.030  -4.445  1.00  0.00    +0.000 C 
ATOM     24  H4  UNL A   1      14.094  -6.669  -0.935  1.00  0.00    +0.000 H 
ATOM     25  H5  UNL A   1      13.109  -8.103  -0.695  1.00  0.00    +0.000 H 
ATOM     26  H6  UNL A   1      12.840  -7.346  -2.938  1.00  0.00    +0.000 H 
ATOM     27  H7  UNL A   1      12.424  -5.710  -2.447  1.00  0.00    +0.000 H 
ATOM     28  H8  UNL A   1      10.823  -8.250  -1.853  1.00  0.00    +0.000 H 
ATOM     29  H9  UNL A   1      10.191  -5.332  -1.209  1.00  0.00    +0.000 H 
ATOM     30  H10 UNL A   1      10.626  -7.582   0.806  1.00  0.00    +0.000 H 
ATOM     31  H11 UNL A   1       9.374  -5.155   1.262  1.00  0.00    +0.000 H 
ATOM     32  H12 UNL A   1      10.403  -5.935   2.453  1.00  0.00    +0.000 H 
ATOM     33  H13 UNL A   1      10.933  -3.453   0.988  1.00  0.00    +0.000 H 
ATOM     34  H14 UNL A   1      11.808  -4.133   2.353  1.00  0.00    +0.000 H 
ATOM     35  H15 UNL A   1      12.297  -4.413  -0.600  1.00  0.00    +0.000 H 
ATOM     37  H17 UNL A   1       8.421  -7.281   0.110  1.00  0.00    +0.000 H 
ATOM     38  H18 UNL A   1       8.084  -5.800  -0.754  1.00  0.00    +0.000 H 
ATOM     39  H19 UNL A   1       6.973  -7.439  -1.997  1.00  0.00    +0.000 H 
ATOM     40  H20 UNL A   1       8.261  -8.627  -1.823  1.00  0.00    +0.000 H 
ATOM     41  H21 UNL A   1      11.709  -6.507  -4.711  1.00  0.00    +0.000 H 
ATOM     42  H22 UNL A   1      10.314  -6.256  -6.692  1.00  0.00    +0.000 H 
ATOM     43  H23 UNL A   1       6.802  -7.185  -4.401  1.00  0.00    +0.000 H 
ENDROOT
BRANCH    2    1
ATOM      1  C1  UNL A   1      13.066  -6.979   1.641  1.00  0.00    +0.000 C 
ATOM     21  H1  UNL A   1      13.910  -7.630   1.394  1.00  0.00    +0.000 H 
ATOM     22  H2  UNL A   1      13.446  -6.189   2.299  1.00  0.00    +0.000 H 
ATOM     23  H3  UNL A   1      12.353  -7.575   2.221  1.00  0.00    +0.000 H 
ENDBRANCH    2    1
BRANCH   10   11
ATOM     11  O1  UNL A   1      13.777  -4.375   0.793  1.00  0.00    +0.000 O 
ATOM     36  H16 UNL A   1      13.825  -4.449   1.761  1.00  0.00    +0.000 H 
ENDBRANCH   10   11
BRANCH   18   20
ATOM     44  H24 UNL A   1       7.117  -7.377  -6.821  1.00  0.00    +0.000 H 
ATOM     20  O2  UNL A   1       7.661  -6.576  -6.748  1.00  0.00    +0.000 O 
ENDBRANCH   18   20
TORSDOF 3
ENDMDL
MODEL 4
REMARK VINA RESULT:    -6.845      4.993      7.041
REMARK INTER + INTRA:          -7.445
REMARK INTER:                  -7.445
REMARK INTRA:                   0.000
REMARK UNBOUND:                 0.000
ROOT
ATOM      2  C2  UNL A   1       4.176  -8.938   3.375  1.00  0.00    +0.000 C 
ATOM      3  C3  UNL A   1       4.066  -8.244   2.007  1.00  0.00    +0.000 C 
ATOM      4  C4  UNL A   1       5.383  -8.128   1.249  1.00  0.00    +0.000 C 
ATOM      5  C5  UNL A   1       6.469  -7.454   2.099  1.00  0.00    +0.000 C 
ATOM      6  C6  UNL A   1       6.691  -8.251   3.407  1.00  0.00    +0.000 C 
ATOM      7  C7  UNL A   1       5.378  -8.442   4.214  1.00  0.00    +0.000 C 
ATOM      8  C8  UNL A   1       5.538  -9.546   5.280  1.00  0.00    +0.000 C 
ATOM      9  C9  UNL A   1       5.023 -10.840   4.641  1.00  0.00    +0.000 C 
ATOM     10  C10 UNL A   1       4.476 -10.449   3.267  1.00  0.00    +0.000 C 
ATOM     12  C11 UNL A   1       7.800  -7.637   4.304  1.00  0.00    +0.000 C 
ATOM     13  C12 UNL A   1       8.646  -6.547   3.643  1.00  0.00    +0.000 C 
ATOM     14  C13 UNL A   1       8.893  -6.835   2.189  1.00  0.00    +0.000 C 
ATOM     15  C14 UNL A   1       7.812  -7.278   1.397  1.00  0.00    +0.000 C 
ATOM     16  C15 UNL A   1       8.026  -7.502   0.030  1.00  0.00    +0.000 C 
ATOM     17  C16 UNL A   1       9.287  -7.296  -0.538  1.00  0.00    +0.000 C 
ATOM     18  C17 UNL A   1      10.338  -6.856   0.259  1.00  0.00    +0.000 C 
ATOM     19  C18 UNL A   1      10.149  -6.619   1.614  1.00  0.00    +0.000 C 
ATOM     24  H4  UNL A   1       3.336  -8.769   1.377  1.00  0.00    +0.000 H 
ATOM     25  H5  UNL A   1       3.674  -7.229   2.149  1.00  0.00    +0.000 H 
ATOM     26  H6  UNL A   1       5.195  -7.540   0.342  1.00  0.00    +0.000 H 
ATOM     27  H7  UNL A   1       5.714  -9.119   0.914  1.00  0.00    +0.000 H 
ATOM     28  H8  UNL A   1       6.110  -6.446   2.350  1.00  0.00    +0.000 H 
ATOM     29  H9  UNL A   1       7.057  -9.247   3.114  1.00  0.00    +0.000 H 
ATOM     30  H10 UNL A   1       5.131  -7.488   4.698  1.00  0.00    +0.000 H 
ATOM     31  H11 UNL A   1       6.563  -9.661   5.641  1.00  0.00    +0.000 H 
ATOM     32  H12 UNL A   1       4.922  -9.306   6.156  1.00  0.00    +0.000 H 
ATOM     33  H13 UNL A   1       5.833 -11.570   4.532  1.00  0.00    +0.000 H 
ATOM     34  H14 UNL A   1       4.259 -11.308   5.271  1.00  0.00    +0.000 H 
ATOM     35  H15 UNL A   1       5.238 -10.650   2.506  1.00  0.00    +0.000 H 
ATOM     37  H17 UNL A   1       7.386  -7.231   5.234  1.00  0.00    +0.000 H 
ATOM     38  H18 UNL A   1       8.468  -8.454   4.612  1.00  0.00    +0.000 H 
ATOM     39  H19 UNL A   1       9.590  -6.447   4.190  1.00  0.00    +0.000 H 
ATOM     40  H20 UNL A   1       8.132  -5.580   3.718  1.00  0.00    +0.000 H 
ATOM     41  H21 UNL A   1       7.223  -7.837  -0.619  1.00  0.00    +0.000 H 
ATOM     42  H22 UNL A   1       9.425  -7.480  -1.599  1.00  0.00    +0.000 H 
ATOM     43  H23 UNL A   1      10.983  -6.264   2.215  1.00  0.00    +0.000 H 
ENDROOT
BRANCH    2    1
ATOM      1  C1  UNL A   1       2.842  -8.689   4.123  1.00  0.00    +0.000 C 
ATOM     21  H1  UNL A   1       1.965  -8.914   3.508  1.00  0.00    +0.000 H 
ATOM     22  H2  UNL A   1       2.779  -9.313   5.022  1.00  0.00    +0.000 H 
ATOM     23  H3  UNL A   1       2.758  -7.645   4.441  1.00  0.00    +0.000 H 
ENDBRANCH    2    1
BRANCH   10   11
ATOM     11  O1  UNL A   1       3.329 -11.207   2.928  1.00  0.00    +0.000 O 
ATOM     36  H16 UNL A   1       3.449 -12.099   3.296  1.00  0.00    +0.000 H 
ENDBRANCH   10   11
BRANCH   18   20
ATOM     44  H24 UNL A   1      11.752  -7.310  -0.938  1.00  0.00    +0.000 H 
ATOM     20  O2  UNL A   1      11.580  -6.638  -0.259  1.00  0.00    +0.000 O 
ENDBRANCH   18   20
TORSDOF 3
ENDMDL
MODEL 5
REMARK VINA RESULT:    -6.824      2.064      3.814
REMARK INTER + INTRA:          -7.422
REMARK INTER:                  -7.422
REMARK INTRA:                   0.000
REMARK UNBOUND:                 0.000
ROOT
ATOM      2  C2  UNL A   1      10.819  -9.845  -3.913  1.00  0.00    +0.000 C 
ATOM      3  C3  UNL A   1      12.044  -8.958  -4.192  1.00  0.00    +0.000 C 
ATOM      4  C4  UNL A   1      12.623  -8.274  -2.960  1.00  0.00    +0.000 C 
ATOM      5  C5  UNL A   1      11.555  -7.476  -2.199  1.00  0.00    +0.000 C 
ATOM      6  C6  UNL A   1      10.394  -8.409  -1.778  1.00  0.00    +0.000 C 
ATOM      7  C7  UNL A   1       9.780  -9.172  -2.984  1.00  0.00    +0.000 C 
ATOM      8  C8  UNL A   1       8.918 -10.359  -2.508  1.00  0.00    +0.000 C 
ATOM      9  C9  UNL A   1       9.830 -11.591  -2.532  1.00  0.00    +0.000 C 
ATOM     10  C10 UNL A   1      11.162 -11.123  -3.120  1.00  0.00    +0.000 C 
ATOM     12  C11 UNL A   1       9.289  -7.669  -0.978  1.00  0.00    +0.000 C 
ATOM     13  C12 UNL A   1       9.650  -6.255  -0.519  1.00  0.00    +0.000 C 
ATOM     14  C13 UNL A   1      11.097  -6.145  -0.129  1.00  0.00    +0.000 C 
ATOM     15  C14 UNL A   1      12.066  -6.739  -0.965  1.00  0.00    +0.000 C 
ATOM     16  C15 UNL A   1      13.420  -6.598  -0.631  1.00  0.00    +0.000 C 
ATOM     17  C16 UNL A   1      13.803  -5.888   0.511  1.00  0.00    +0.000 C 
ATOM     18  C17 UNL A   1      12.832  -5.307   1.318  1.00  0.00    +0.000 C 
ATOM     19  C18 UNL A   1      11.485  -5.425   1.005  1.00  0.00    +0.000 C 
ATOM     24  H4  UNL A   1      12.833  -9.549  -4.677  1.00  0.00    +0.000 H 
ATOM     25  H5  UNL A   1      11.766  -8.174  -4.908  1.00  0.00    +0.000 H 
ATOM     26  H6  UNL A   1      13.425  -7.605  -3.296  1.00  0.00    +0.000 H 
ATOM     27  H7  UNL A   1      13.093  -9.016  -2.302  1.00  0.00    +0.000 H 
ATOM     28  H8  UNL A   1      11.168  -6.710  -2.886  1.00  0.00    +0.000 H 
ATOM     29  H9  UNL A   1      10.820  -9.153  -1.087  1.00  0.00    +0.000 H 
ATOM     30  H10 UNL A   1       9.163  -8.467  -3.556  1.00  0.00    +0.000 H 
ATOM     31  H11 UNL A   1       8.476 -10.211  -1.519  1.00  0.00    +0.000 H 
ATOM     32  H12 UNL A   1       8.084 -10.514  -3.204  1.00  0.00    +0.000 H 
ATOM     33  H13 UNL A   1       9.980 -11.984  -1.520  1.00  0.00    +0.000 H 
ATOM     34  H14 UNL A   1       9.379 -12.397  -3.120  1.00  0.00    +0.000 H 
ATOM     35  H15 UNL A   1      11.861 -10.910  -2.304  1.00  0.00    +0.000 H 
ATOM     37  H17 UNL A   1       8.351  -7.616  -1.543  1.00  0.00    +0.000 H 
ATOM     38  H18 UNL A   1       9.061  -8.273  -0.088  1.00  0.00    +0.000 H 
ATOM     39  H19 UNL A   1       8.995  -5.971   0.313  1.00  0.00    +0.000 H 
ATOM     40  H20 UNL A   1       9.458  -5.541  -1.331  1.00  0.00    +0.000 H 
ATOM     41  H21 UNL A   1      14.201  -7.033  -1.247  1.00  0.00    +0.000 H 
ATOM     42  H22 UNL A   1      14.859  -5.797   0.747  1.00  0.00    +0.000 H 
ATOM     43  H23 UNL A   1      10.744  -4.953   1.645  1.00  0.00    +0.000 H 
ENDROOT
BRANCH    2    1
ATOM      1  C1  UNL A   1      10.186 -10.194  -5.284  1.00  0.00    +0.000 C 
ATOM     21  H1  UNL A   1      10.657  -9.660  -6.114  1.00  0.00    +0.000 H 
ATOM     22  H2  UNL A   1      10.278 -11.266  -5.491  1.00  0.00    +0.000 H 
ATOM     23  H3  UNL A   1       9.119  -9.946  -5.299  1.00  0.00    +0.000 H 
ENDBRANCH    2    1
BRANCH   10   11
ATOM     11  O1  UNL A   1      11.753 -12.123  -3.931  1.00  0.00    +0.000 O 
ATOM     36  H16 UNL A   1      12.355 -11.679  -4.552  1.00  0.00    +0.000 H 
ENDBRANCH   10   11
BRANCH   18   20
ATOM     44  H24 UNL A   1      14.098  -4.337   2.365  1.00  0.00    +0.000 H 
ATOM     20  O2  UNL A   1      13.166  -4.602   2.436  1.00  0.00    +0.000 O 
ENDBRANCH   18   20
TORSDOF 3
ENDMDL
MODEL 6
REMARK VINA RESULT:    -6.634      2.632      6.536
REMARK INTER + INTRA:          -7.216
REMARK INTER:                  -7.216
REMARK INTRA:                   0.000
REMARK UNBOUND:                 0.000
ROOT
ATOM      2  C2  UNL A   1      10.642  -6.240   0.238  1.00  0.00    +0.000 C 
ATOM      3  C3  UNL A   1       9.313  -6.812  -0.282  1.00  0.00    +0.000 C 
ATOM      4  C4  UNL A   1       9.409  -8.225  -0.844  1.00  0.00    +0.000 C 
ATOM      5  C5  UNL A   1      10.491  -8.333  -1.927  1.00  0.00    +0.000 C 
ATOM      6  C6  UNL A   1      11.864  -7.908  -1.351  1.00  0.00    +0.000 C 
ATOM      7  C7  UNL A   1      11.829  -6.488  -0.724  1.00  0.00    +0.000 C 
ATOM      8  C8  UNL A   1      13.061  -6.247   0.173  1.00  0.00    +0.000 C 
ATOM      9  C9  UNL A   1      12.629  -6.600   1.601  1.00  0.00    +0.000 C 
ATOM     10  C10 UNL A   1      11.138  -6.931   1.526  1.00  0.00    +0.000 C 
ATOM     12  C11 UNL A   1      13.012  -8.021  -2.389  1.00  0.00    +0.000 C 
ATOM     13  C12 UNL A   1      12.657  -8.765  -3.678  1.00  0.00    +0.000 C 
ATOM     14  C13 UNL A   1      11.727  -9.917  -3.421  1.00  0.00    +0.000 C 
ATOM     15  C14 UNL A   1      10.629  -9.715  -2.557  1.00  0.00    +0.000 C 
ATOM     16  C15 UNL A   1       9.732 -10.772  -2.352  1.00  0.00    +0.000 C 
ATOM     17  C16 UNL A   1       9.921 -12.004  -2.986  1.00  0.00    +0.000 C 
ATOM     18  C17 UNL A   1      11.007 -12.179  -3.836  1.00  0.00    +0.000 C 
ATOM     19  C18 UNL A   1      11.906 -11.146  -4.063  1.00  0.00    +0.000 C 
ATOM     24  H4  UNL A   1       8.559  -6.794   0.515  1.00  0.00    +0.000 H 
ATOM     25  H5  UNL A   1       8.929  -6.162  -1.080  1.00  0.00    +0.000 H 
ATOM     26  H6  UNL A   1       8.429  -8.484  -1.264  1.00  0.00    +0.000 H 
ATOM     27  H7  UNL A   1       9.599  -8.940  -0.034  1.00  0.00    +0.000 H 
ATOM     28  H8  UNL A   1      10.214  -7.643  -2.737  1.00  0.00    +0.000 H 
ATOM     29  H9  UNL A   1      12.108  -8.626  -0.552  1.00  0.00    +0.000 H 
ATOM     30  H10 UNL A   1      11.812  -5.754  -1.540  1.00  0.00    +0.000 H 
ATOM     31  H11 UNL A   1      13.942  -6.820  -0.129  1.00  0.00    +0.000 H 
ATOM     32  H12 UNL A   1      13.347  -5.189   0.134  1.00  0.00    +0.000 H 
ATOM     33  H13 UNL A   1      13.190  -7.464   1.975  1.00  0.00    +0.000 H 
ATOM     34  H14 UNL A   1      12.834  -5.770   2.286  1.00  0.00    +0.000 H 
ATOM     35  H15 UNL A   1      11.013  -8.018   1.468  1.00  0.00    +0.000 H 
ATOM     37  H17 UNL A   1      13.405  -7.034  -2.662  1.00  0.00    +0.000 H 
ATOM     38  H18 UNL A   1      13.848  -8.546  -1.906  1.00  0.00    +0.000 H 
ATOM     39  H19 UNL A   1      13.581  -9.106  -4.160  1.00  0.00    +0.000 H 
ATOM     40  H20 UNL A   1      12.167  -8.079  -4.381  1.00  0.00    +0.000 H 
ATOM     41  H21 UNL A   1       8.870 -10.662  -1.701  1.00  0.00    +0.000 H 
ATOM     42  H22 UNL A   1       9.212 -12.805  -2.806  1.00  0.00    +0.000 H 
ATOM     43  H23 UNL A   1      12.741 -11.303  -4.740  1.00  0.00    +0.000 H 
ENDROOT
BRANCH    2    1
ATOM      1  C1  UNL A   1      10.429  -4.723   0.469  1.00  0.00    +0.000 C 
ATOM     21  H1  UNL A   1      10.775  -4.115  -0.373  1.00  0.00    +0.000 H 
ATOM     22  H2  UNL A   1       9.367  -4.498   0.619  1.00  0.00    +0.000 H 
ATOM     23  H3  UNL A   1      10.966  -4.380   1.360  1.00  0.00    +0.000 H 
ENDBRANCH    2    1
BRANCH   10   11
ATOM     11  O1  UNL A   1      10.447  -6.487   2.681  1.00  0.00    +0.000 O 
ATOM     36  H16 UNL A   1      10.235  -5.547   2.552  1.00  0.00    +0.000 H 
ENDBRANCH   10   11
BRANCH   18   20
ATOM     44  H24 UNL A   1      10.551 -13.999  -4.183  1.00  0.00    +0.000 H 
ATOM     20  O2  UNL A   1      11.223 -13.363  -4.477  1.00  0.00    +0.000 O 
ENDBRANCH   18   20
TORSDOF 3
ENDMDL
MODEL 7
REMARK VINA RESULT:    -6.554      7.461      9.494
REMARK INTER + INTRA:          -7.129
REMARK INTER:                  -7.129
REMARK INTRA:                   0.000
REMARK UNBOUND:                 0.000
ROOT
ATOM      2  C2  UNL A   1       2.727  -9.681   6.065  1.00  0.00    +0.000 C 
ATOM      3  C3  UNL A   1       4.133 -10.187   6.429  1.00  0.00    +0.000 C 
ATOM      4  C4  UNL A   1       5.272  -9.345   5.866  1.00  0.00    +0.000 C 
ATOM      5  C5  UNL A   1       5.150  -9.167   4.347  1.00  0.00    +0.000 C 
ATOM      6  C6  UNL A   1       3.794  -8.508   3.996  1.00  0.00    +0.000 C 
ATOM      7  C7  UNL A   1       2.586  -9.294   4.574  1.00  0.00    +0.000 C 
ATOM      8  C8  UNL A   1       1.305  -8.434   4.557  1.00  0.00    +0.000 C 
ATOM      9  C9  UNL A   1       1.205  -7.783   5.940  1.00  0.00    +0.000 C 
ATOM     10  C10 UNL A   1       2.358  -8.357   6.766  1.00  0.00    +0.000 C 
ATOM     12  C11 UNL A   1       3.617  -8.273   2.472  1.00  0.00    +0.000 C 
ATOM     13  C12 UNL A   1       4.877  -8.473   1.629  1.00  0.00    +0.000 C 
ATOM     14  C13 UNL A   1       6.112  -8.007   2.348  1.00  0.00    +0.000 C 
ATOM     15  C14 UNL A   1       6.271  -8.356   3.706  1.00  0.00    +0.000 C 
ATOM     16  C15 UNL A   1       7.443  -7.965   4.368  1.00  0.00    +0.000 C 
ATOM     17  C16 UNL A   1       8.433  -7.238   3.698  1.00  0.00    +0.000 C 
ATOM     18  C17 UNL A   1       8.257  -6.908   2.359  1.00  0.00    +0.000 C 
ATOM     19  C18 UNL A   1       7.109  -7.291   1.679  1.00  0.00    +0.000 C 
ATOM     24  H4  UNL A   1       4.239 -10.249   7.520  1.00  0.00    +0.000 H 
ATOM     25  H5  UNL A   1       4.257 -11.209   6.050  1.00  0.00    +0.000 H 
ATOM     26  H6  UNL A   1       6.214  -9.852   6.112  1.00  0.00    +0.000 H 
ATOM     27  H7  UNL A   1       5.304  -8.370   6.369  1.00  0.00    +0.000 H 
ATOM     28  H8  UNL A   1       5.188 -10.169   3.896  1.00  0.00    +0.000 H 
ATOM     29  H9  UNL A   1       3.800  -7.508   4.457  1.00  0.00    +0.000 H 
ATOM     30  H10 UNL A   1       2.440 -10.194   3.963  1.00  0.00    +0.000 H 
ATOM     31  H11 UNL A   1       1.292  -7.683   3.762  1.00  0.00    +0.000 H 
ATOM     32  H12 UNL A   1       0.430  -9.076   4.395  1.00  0.00    +0.000 H 
ATOM     33  H13 UNL A   1       1.298  -6.694   5.866  1.00  0.00    +0.000 H 
ATOM     34  H14 UNL A   1       0.230  -7.986   6.396  1.00  0.00    +0.000 H 
ATOM     35  H15 UNL A   1       3.196  -7.651   6.751  1.00  0.00    +0.000 H 
ATOM     37  H17 UNL A   1       2.824  -8.907   2.057  1.00  0.00    +0.000 H 
ATOM     38  H18 UNL A   1       3.269  -7.239   2.333  1.00  0.00    +0.000 H 
ATOM     39  H19 UNL A   1       4.756  -7.948   0.674  1.00  0.00    +0.000 H 
ATOM     40  H20 UNL A   1       5.000  -9.537   1.391  1.00  0.00    +0.000 H 
ATOM     41  H21 UNL A   1       7.613  -8.215   5.410  1.00  0.00    +0.000 H 
ATOM     42  H22 UNL A   1       9.329  -6.946   4.237  1.00  0.00    +0.000 H 
ATOM     43  H23 UNL A   1       6.999  -7.031   0.629  1.00  0.00    +0.000 H 
ENDROOT
BRANCH    2    1
ATOM      1  C1  UNL A   1       1.726 -10.804   6.439  1.00  0.00    +0.000 C 
ATOM     21  H1  UNL A   1       0.683 -10.494   6.327  1.00  0.00    +0.000 H 
ATOM     22  H2  UNL A   1       1.875 -11.684   5.803  1.00  0.00    +0.000 H 
ATOM     23  H3  UNL A   1       1.861 -11.123   7.478  1.00  0.00    +0.000 H 
ENDBRANCH    2    1
BRANCH   10   11
ATOM     11  O1  UNL A   1       1.986  -8.543   8.120  1.00  0.00    +0.000 O 
ATOM     36  H16 UNL A   1       2.142  -9.477   8.340  1.00  0.00    +0.000 H 
ENDBRANCH   10   11
BRANCH   18   20
ATOM     44  H24 UNL A   1       9.748  -5.719   2.309  1.00  0.00    +0.000 H 
ATOM     20  O2  UNL A   1       9.201  -6.206   1.671  1.00  0.00    +0.000 O 
ENDBRANCH   18   20
TORSDOF 3
ENDMDL
MODEL 8
REMARK VINA RESULT:    -6.519      2.965      4.534
REMARK INTER + INTRA:          -7.090
REMARK INTER:                  -7.090
REMARK INTRA:                   0.000
REMARK UNBOUND:                 0.000
ROOT
ATOM      2  C2  UNL A   1      12.061  -8.159  -4.845  1.00  0.00    +0.000 C 
ATOM      3  C3  UNL A   1      13.010  -7.372  -3.925  1.00  0.00    +0.000 C 
ATOM      4  C4  UNL A   1      12.624  -7.393  -2.451  1.00  0.00    +0.000 C 
ATOM      5  C5  UNL A   1      11.176  -6.932  -2.237  1.00  0.00    +0.000 C 
ATOM      6  C6  UNL A   1      10.207  -7.831  -3.041  1.00  0.00    +0.000 C 
ATOM      7  C7  UNL A   1      10.566  -7.888  -4.551  1.00  0.00    +0.000 C 
ATOM      8  C8  UNL A   1       9.855  -9.068  -5.246  1.00  0.00    +0.000 C 
ATOM      9  C9  UNL A   1      10.848 -10.235  -5.236  1.00  0.00    +0.000 C 
ATOM     10  C10 UNL A   1      12.145  -9.686  -4.640  1.00  0.00    +0.000 C 
ATOM     12  C11 UNL A   1       8.718  -7.435  -2.846  1.00  0.00    +0.000 C 
ATOM     13  C12 UNL A   1       8.450  -6.435  -1.720  1.00  0.00    +0.000 C 
ATOM     14  C13 UNL A   1       9.354  -6.663  -0.542  1.00  0.00    +0.000 C 
ATOM     15  C14 UNL A   1      10.724  -6.900  -0.780  1.00  0.00    +0.000 C 
ATOM     16  C15 UNL A   1      11.579  -7.066   0.318  1.00  0.00    +0.000 C 
ATOM     17  C16 UNL A   1      11.085  -7.003   1.624  1.00  0.00    +0.000 C 
ATOM     18  C17 UNL A   1       9.732  -6.764   1.837  1.00  0.00    +0.000 C 
ATOM     19  C18 UNL A   1       8.865  -6.588   0.766  1.00  0.00    +0.000 C 
ATOM     24  H4  UNL A   1      14.035  -7.750  -4.032  1.00  0.00    +0.000 H 
ATOM     25  H5  UNL A   1      13.035  -6.323  -4.247  1.00  0.00    +0.000 H 
ATOM     26  H6  UNL A   1      13.314  -6.729  -1.917  1.00  0.00    +0.000 H 
ATOM     27  H7  UNL A   1      12.775  -8.398  -2.036  1.00  0.00    +0.000 H 
ATOM     28  H8  UNL A   1      11.102  -5.901  -2.612  1.00  0.00    +0.000 H 
ATOM     29  H9  UNL A   1      10.304  -8.849  -2.630  1.00  0.00    +0.000 H 
ATOM     30  H10 UNL A   1      10.256  -6.941  -5.011  1.00  0.00    +0.000 H 
ATOM     31  H11 UNL A   1       8.908  -9.347  -4.776  1.00  0.00    +0.000 H 
ATOM     32  H12 UNL A   1       9.622  -8.800  -6.284  1.00  0.00    +0.000 H 
ATOM     33  H13 UNL A   1      10.470 -11.062  -4.625  1.00  0.00    +0.000 H 
ATOM     34  H14 UNL A   1      10.992 -10.631  -6.247  1.00  0.00    +0.000 H 
ATOM     35  H15 UNL A   1      12.189  -9.944  -3.577  1.00  0.00    +0.000 H 
ATOM     37  H17 UNL A   1       8.285  -7.034  -3.770  1.00  0.00    +0.000 H 
ATOM     38  H18 UNL A   1       8.154  -8.355  -2.633  1.00  0.00    +0.000 H 
ATOM     39  H19 UNL A   1       7.396  -6.501  -1.427  1.00  0.00    +0.000 H 
ATOM     40  H20 UNL A   1       8.614  -5.412  -2.085  1.00  0.00    +0.000 H 
ATOM     41  H21 UNL A   1      12.641  -7.245   0.183  1.00  0.00    +0.000 H 
ATOM     42  H22 UNL A   1      11.770  -7.138   2.455  1.00  0.00    +0.000 H 
ATOM     43  H23 UNL A   1       7.813  -6.392   0.957  1.00  0.00    +0.000 H 
ENDROOT
BRANCH    2    1
ATOM      1  C1  UNL A   1      12.413  -7.774  -6.304  1.00  0.00    +0.000 C 
ATOM     21  H1  UNL A   1      12.417  -8.635  -6.978  1.00  0.00    +0.000 H 
ATOM     22  H2  UNL A   1      11.689  -7.053  -6.700  1.00  0.00    +0.000 H 
ATOM     23  H3  UNL A   1      13.404  -7.310  -6.361  1.00  0.00    +0.000 H 
ENDBRANCH    2    1
BRANCH   10   11
ATOM     11  O1  UNL A   1      13.284 -10.256  -5.261  1.00  0.00    +0.000 O 
ATOM     36  H16 UNL A   1      13.240 -10.040  -6.208  1.00  0.00    +0.000 H 
ENDBRANCH   10   11
BRANCH   18   20
ATOM     44  H24 UNL A   1       8.497  -6.034   3.094  1.00  0.00    +0.000 H 
ATOM     20  O2  UNL A   1       9.213  -6.689   3.095  1.00  0.00    +0.000 O 
ENDBRANCH   18   20
TORSDOF 3
ENDMDL
MODEL 9
REMARK VINA RESULT:    -5.924      3.521      7.311
REMARK INTER + INTRA:          -6.444
REMARK INTER:                  -6.444
REMARK INTRA:                   0.000
REMARK UNBOUND:                 0.000
ROOT
ATOM      2  C2  UNL A   1       9.446  -6.798  -1.851  1.00  0.00    +0.000 C 
ATOM      3  C3  UNL A   1       8.499  -5.806  -2.546  1.00  0.00    +0.000 C 
ATOM      4  C4  UNL A   1       8.276  -6.079  -4.029  1.00  0.00    +0.000 C 
ATOM      5  C5  UNL A   1       9.602  -6.171  -4.795  1.00  0.00    +0.000 C 
ATOM      6  C6  UNL A   1      10.490  -7.285  -4.190  1.00  0.00    +0.000 C 
ATOM      7  C7  UNL A   1      10.727  -7.092  -2.667  1.00  0.00    +0.000 C 
ATOM      8  C8  UNL A   1      11.264  -8.386  -2.021  1.00  0.00    +0.000 C 
ATOM      9  C9  UNL A   1      10.043  -9.129  -1.468  1.00  0.00    +0.000 C 
ATOM     10  C10 UNL A   1       8.842  -8.211  -1.703  1.00  0.00    +0.000 C 
ATOM     12  C11 UNL A   1      11.840  -7.451  -4.939  1.00  0.00    +0.000 C 
ATOM     13  C12 UNL A   1      11.947  -6.701  -6.268  1.00  0.00    +0.000 C 
ATOM     14  C13 UNL A   1      10.641  -6.693  -7.012  1.00  0.00    +0.000 C 
ATOM     15  C14 UNL A   1       9.459  -6.417  -6.294  1.00  0.00    +0.000 C 
ATOM     16  C15 UNL A   1       8.245  -6.361  -6.993  1.00  0.00    +0.000 C 
ATOM     17  C16 UNL A   1       8.205  -6.579  -8.373  1.00  0.00    +0.000 C 
ATOM     18  C17 UNL A   1       9.383  -6.846  -9.062  1.00  0.00    +0.000 C 
ATOM     19  C18 UNL A   1      10.599  -6.899  -8.394  1.00  0.00    +0.000 C 
ATOM     24  H4  UNL A   1       7.528  -5.792  -2.035  1.00  0.00    +0.000 H 
ATOM     25  H5  UNL A   1       8.909  -4.792  -2.453  1.00  0.00    +0.000 H 
ATOM     26  H6  UNL A   1       7.665  -5.260  -4.430  1.00  0.00    +0.000 H 
ATOM     27  H7  UNL A   1       7.689  -6.997  -4.159  1.00  0.00    +0.000 H 
ATOM     28  H8  UNL A   1      10.114  -5.205  -4.682  1.00  0.00    +0.000 H 
ATOM     29  H9  UNL A   1       9.948  -8.234  -4.331  1.00  0.00    +0.000 H 
ATOM     30  H10 UNL A   1      11.453  -6.279  -2.535  1.00  0.00    +0.000 H 
ATOM     31  H11 UNL A   1      11.835  -9.015  -2.709  1.00  0.00    +0.000 H 
ATOM     32  H12 UNL A   1      11.939  -8.134  -1.194  1.00  0.00    +0.000 H 
ATOM     33  H13 UNL A   1       9.899 -10.082  -1.989  1.00  0.00    +0.000 H 
ATOM     34  H14 UNL A   1      10.180  -9.367  -0.407  1.00  0.00    +0.000 H 
ATOM     35  H15 UNL A   1       8.326  -8.522  -2.618  1.00  0.00    +0.000 H 
ATOM     37  H17 UNL A   1      12.687  -7.154  -4.309  1.00  0.00    +0.000 H 
ATOM     38  H18 UNL A   1      11.982  -8.524  -5.134  1.00  0.00    +0.000 H 
ATOM     39  H19 UNL A   1      12.741  -7.155  -6.871  1.00  0.00    +0.000 H 
ATOM     40  H20 UNL A   1      12.243  -5.660  -6.084  1.00  0.00    +0.000 H 
ATOM     41  H21 UNL A   1       7.311  -6.146  -6.484  1.00  0.00    +0.000 H 
ATOM     42  H22 UNL A   1       7.251  -6.532  -8.888  1.00  0.00    +0.000 H 
ATOM     43  H23 UNL A   1      11.508  -7.098  -8.956  1.00  0.00    +0.000 H 
ENDROOT
BRANCH    2    1
ATOM      1  C1  UNL A   1       9.801  -6.199  -0.467  1.00  0.00    +0.000 C 
ATOM     21  H1  UNL A   1       8.916  -5.897   0.102  1.00  0.00    +0.000 H 
ATOM     22  H2  UNL A   1      10.348  -6.926   0.143  1.00  0.00    +0.000 H 
ATOM     23  H3  UNL A   1      10.438  -5.314  -0.573  1.00  0.00    +0.000 H 
ENDBRANCH    2    1
BRANCH   10   11
ATOM     11  O1  UNL A   1       7.908  -8.295  -0.641  1.00  0.00    +0.000 O 
ATOM     36  H16 UNL A   1       8.408  -8.262   0.192  1.00  0.00    +0.000 H 
ENDBRANCH   10   11
BRANCH   18   20
ATOM     44  H24 UNL A   1       9.898  -6.350 -10.831  1.00  0.00    +0.000 H 
ATOM     20  O2  UNL A   1       9.386  -7.059 -10.409  1.00  0.00    +0.000 O 
ENDBRANCH   18   20
TORSDOF 3
ENDMDL
