REMARK Flexibility Score: inf
REMARK Active torsions [ 7 ] -> [ 7 ]
ROOT
ATOM      1  C1  LIG L   1      15.822  54.641  12.322  1.00  0.00     0.038 A 
ATOM      2  C2  LIG L   1      16.950  54.502  11.393  1.00  0.00    -0.029 A 
ATOM      3  C3  LIG L   1      17.915  53.471  11.648  1.00  0.00     0.007 A 
ATOM      4  C4  LIG L   1      17.774  52.597  12.786  1.00  0.00     0.024 A 
ATOM      5  C5  LIG L   1      16.678  52.727  13.688  1.00  0.00     0.035 A 
ATOM      6  C6  LIG L   1      15.698  53.772  13.436  1.00  0.00     0.047 A 
ATOM      7  C7  LIG L   1      17.148  55.406  10.154  1.00  0.00     0.045 C 
ENDROOT
BRANCH    1    8
ATOM      8  N1  LIG L   1      14.852  55.627  12.128  1.00  0.00    -0.283 N 
ATOM      9  H1  LIG L   1      14.181  55.516  11.416  1.00  0.00     0.155 HD
BRANCH    8   10
ATOM     10  C8  LIG L   1      14.823  56.760  12.927  1.00  0.00     0.220 A 
ATOM     11  C9  LIG L   1      13.654  58.032  14.566  1.00  0.00     0.077 A 
ATOM     12 C10  LIG L   1      14.683  59.032  14.559  1.00  0.00     0.048 A 
ATOM     13  N2  LIG L   1      13.766  56.930  13.748  1.00  0.00    -0.214 NA
ATOM     14 C11  LIG L   1      15.779  58.828  13.692  1.00  0.00     0.116 A 
ATOM     15  N3  LIG L   1      15.832  57.705  12.894  1.00  0.00    -0.223 NA
BRANCH   11   16
ATOM     16 C12  LIG L   1      12.431  58.107  15.426  1.00  0.00     0.019 A 
ATOM     17 C13  LIG L   1      10.978  59.231  17.155  1.00  0.00     0.020 A 
ATOM     18 C14  LIG L   1      12.175  59.207  16.347  1.00  0.00     0.013 A 
ATOM     19 C15  LIG L   1      10.047  58.141  17.028  1.00  0.00     0.111 A 
ATOM     20  N4  LIG L   1      10.302  57.088  16.137  1.00  0.00    -0.263 NA
ATOM     21 C16  LIG L   1      11.446  57.038  15.345  1.00  0.00     0.120 A 
ENDBRANCH   11   16
ENDBRANCH    8   10
ENDBRANCH    1    8
BRANCH    5   22
ATOM     22  N5  LIG L   1      16.600  51.810  14.798  1.00  0.00    -0.281 N 
ATOM     23 C17  LIG L   1      16.917  52.050  16.125  1.00  0.00     0.248 C 
ATOM     24  H2  LIG L   1      16.283  50.902  14.587  1.00  0.00     0.155 HD
ATOM     25  O1  LIG L   1      17.522  53.034  16.524  1.00  0.00    -0.270 OA
BRANCH   23   26
ATOM     26 C18  LIG L   1      16.516  51.045  17.156  1.00  0.00     0.037 A 
ATOM     27 C19  LIG L   1      16.911  51.197  18.559  1.00  0.00     0.013 A 
ATOM     28 C20  LIG L   1      15.733  49.898  16.750  1.00  0.00     0.013 A 
ATOM     29 C21  LIG L   1      16.526  50.204  19.530  1.00  0.00     0.002 A 
ATOM     30 C22  LIG L   1      15.356  48.927  17.705  1.00  0.00     0.002 A 
ATOM     31 C23  LIG L   1      15.739  49.050  19.102  1.00  0.00    -0.064 A 
BRANCH   31   32
ATOM     32 C24  LIG L   1      15.302  47.932  20.066  1.00  0.00    -0.043 C 
BRANCH   32   33
ATOM     33  N6  LIG L   1      15.770  46.546  19.763  1.00  0.00     0.380 N 
ATOM     34 C25  LIG L   1      17.274  46.462  19.859  1.00  0.00    -0.097 C 
ATOM     35 C26  LIG L   1      15.126  45.507  20.685  1.00  0.00    -0.097 C 
ATOM     36  H3  LIG L   1      15.483  46.334  18.808  1.00  0.00    -0.082 HD
ATOM     37 C27  LIG L   1      17.784  45.032  19.527  1.00  0.00    -0.098 C 
ATOM     38 C28  LIG L   1      15.610  44.062  20.339  1.00  0.00    -0.098 C 
ATOM     39  N7  LIG L   1      17.135  44.001  20.438  1.00  0.00     0.375 N 
ATOM     40 C29  LIG L   1      17.589  42.628  20.171  1.00  0.00    -0.096 C 
ATOM     41  H4  LIG L   1      17.429  44.242  21.385  1.00  0.00    -0.082 HD
ENDBRANCH   32   33
ENDBRANCH   31   32
ENDBRANCH   23   26
ENDBRANCH    5   22
TORSDOF 7
