ROOT
ATOM      2  C2  UNL A   1      -2.302  -0.743  -0.010  1.00  0.00    +0.000 C 
ATOM      3  C3  UNL A   1      -1.459  -1.949   0.437  1.00  0.00    +0.000 C 
ATOM      4  C4  UNL A   1      -0.047  -1.600   0.891  1.00  0.00    +0.000 C 
ATOM      5  C5  UNL A   1       0.708  -0.792  -0.173  1.00  0.00    +0.000 C 
ATOM      6  C6  UNL A   1      -0.067   0.506  -0.504  1.00  0.00    +0.000 C 
ATOM      7  C7  UNL A   1      -1.532   0.227  -0.938  1.00  0.00    +0.000 C 
ATOM      8  C8  UNL A   1      -2.382   1.513  -0.880  1.00  0.00    +0.000 C 
ATOM      9  C9  UNL A   1      -3.067   1.515   0.491  1.00  0.00    +0.000 C 
ATOM     10  C10 UNL A   1      -2.694   0.189   1.156  1.00  0.00    +0.000 C 
ATOM     12  C11 UNL A   1       0.658   1.387  -1.557  1.00  0.00    +0.000 C 
ATOM     13  C12 UNL A   1       2.096   0.974  -1.876  1.00  0.00    +0.000 C 
ATOM     14  C13 UNL A   1       2.816   0.468  -0.658  1.00  0.00    +0.000 C 
ATOM     15  C14 UNL A   1       2.142  -0.427   0.199  1.00  0.00    +0.000 C 
ATOM     16  C15 UNL A   1       2.826  -0.939   1.310  1.00  0.00    +0.000 C 
ATOM     17  C16 UNL A   1       4.149  -0.567   1.568  1.00  0.00    +0.000 C 
ATOM     18  C17 UNL A   1       4.796   0.313   0.708  1.00  0.00    +0.000 C 
ATOM     19  C18 UNL A   1       4.143   0.828  -0.404  1.00  0.00    +0.000 C 
ATOM     24  H4  UNL A   1      -1.972  -2.487   1.245  1.00  0.00    +0.000 H 
ATOM     25  H5  UNL A   1      -1.374  -2.658  -0.397  1.00  0.00    +0.000 H 
ATOM     26  H6  UNL A   1       0.480  -2.541   1.094  1.00  0.00    +0.000 H 
ATOM     27  H7  UNL A   1      -0.081  -1.052   1.841  1.00  0.00    +0.000 H 
ATOM     28  H8  UNL A   1       0.766  -1.415  -1.077  1.00  0.00    +0.000 H 
ATOM     29  H9  UNL A   1      -0.095   1.103   0.421  1.00  0.00    +0.000 H 
ATOM     30  H10 UNL A   1      -1.516  -0.165  -1.963  1.00  0.00    +0.000 H 
ATOM     31  H11 UNL A   1      -1.804   2.428  -1.037  1.00  0.00    +0.000 H 
ATOM     32  H12 UNL A   1      -3.147   1.487  -1.666  1.00  0.00    +0.000 H 
ATOM     33  H13 UNL A   1      -2.717   2.356   1.100  1.00  0.00    +0.000 H 
ATOM     34  H14 UNL A   1      -4.151   1.633   0.384  1.00  0.00    +0.000 H 
ATOM     35  H15 UNL A   1      -1.851   0.353   1.836  1.00  0.00    +0.000 H 
ATOM     37  H17 UNL A   1       0.098   1.430  -2.499  1.00  0.00    +0.000 H 
ATOM     38  H18 UNL A   1       0.671   2.418  -1.176  1.00  0.00    +0.000 H 
ATOM     39  H19 UNL A   1       2.623   1.827  -2.319  1.00  0.00    +0.000 H 
ATOM     40  H20 UNL A   1       2.095   0.176  -2.630  1.00  0.00    +0.000 H 
ATOM     41  H21 UNL A   1       2.350  -1.635   1.994  1.00  0.00    +0.000 H 
ATOM     42  H22 UNL A   1       4.653  -0.977   2.437  1.00  0.00    +0.000 H 
ATOM     43  H23 UNL A   1       4.673   1.506  -1.068  1.00  0.00    +0.000 H 
ENDROOT
BRANCH    2    1
ATOM      1  C1  UNL A   1      -3.560  -1.302  -0.721  1.00  0.00    +0.000 C 
ATOM     21  H1  UNL A   1      -4.267  -0.517  -1.006  1.00  0.00    +0.000 H 
ATOM     22  H2  UNL A   1      -3.283  -1.839  -1.635  1.00  0.00    +0.000 H 
ATOM     23  H3  UNL A   1      -4.097  -2.006  -0.076  1.00  0.00    +0.000 H 
ENDBRANCH    2    1
BRANCH   10   11
ATOM     11  O1  UNL A   1      -3.765  -0.326   1.927  1.00  0.00    +0.000 O 
ATOM     36  H16 UNL A   1      -4.006   0.351   2.582  1.00  0.00    +0.000 H 
ENDBRANCH   10   11
BRANCH   18   20
ATOM     44  H24 UNL A   1       6.409   0.254   1.725  1.00  0.00    +0.000 H 
ATOM     20  O2  UNL A   1       6.087   0.695   0.922  1.00  0.00    +0.000 O 
ENDBRANCH   18   20
TORSDOF 3